<?xml version="1.0" encoding="UTF-8"?>


<routes>
    <vType id="passenger" speedFactor="normc(1.00,0.10,0.20,2.00)" vClass="passenger" />
    <vType id="target" speedFactor="2" speedDev="0" vClass="ignoring"/>
  <!--   
    <trip id="veh0" depart="0" from="gneE34" to="gneE71" type="passenger" via="gneE8" />
    <trip id="veh1" depart="0.52" from="gneE33" to="gneE72" type="passenger" via="gneE11" />
    <trip id="veh2" depart="0.53" from="gneE32" to="gneE69" type="passenger" via="gneE12" />
    <trip id="veh3" depart="0.54" from="gneE30" to="gneE70" type="passenger" via="gneE13" />
    <trip id="veh4" depart="0.55" from="gneE73" to="gneE60" type="passenger" via="gneE9" />
    <trip id="veh5" depart="0.56" from="gneE35" to="gneE82" type="passenger" via="gneE11" />
    <trip id="veh6" depart="0.57" from="gneE37" to="gneE64" type="passenger" via="gneE12" />
    <trip id="veh7" depart="0.58" from="gneE39" to="gneE62" type="passenger" via="gneE14" />
    <trip id="veh8" depart="0.59" from="gneE39" to="gneE80" type="passenger" via="gneE13" />
    <trip id="veh9" depart="0.60" from="gneE40" to="gneE63" type="passenger" via="gneE13" />
    
    <trip id="veh10" depart="0.81" from="gneE68" to="gneE35" type="passenger" via="gneE7" />
    <trip id="veh11" depart="0.82" from="gneE82" to="gneE73" type="passenger" via="gneE10" />
    <trip id="veh12" depart="0.83" from="gneE60" to="gneE73" type="passenger" via="gneE12" /> 
    <trip id="veh13" depart="0.84" from="gneE62" to="gneE39" type="passenger" via="gneE25" />
    <trip id="veh14" depart="0.85" from="gneE64" to="gneE40" type="passenger" via="gneE20" />
    <trip id="veh15" depart="0.86" from="gneE81" to="gneE35" type="passenger" via="gneE20" />
    <trip id="veh16" depart="0.87" from="gneE59" to="gneE73" type="passenger" via="gneE25" />
    <trip id="veh17" depart="0.88" from="gneE61" to="gneE35" type="passenger" via="gneE12" />
    <trip id="veh18" depart="0.89" from="gneE63" to="gneE41" type="passenger" via="gneE3" />
    <trip id="veh19" depart="0.90" from="gneE30" to="gneE41" type="passenger" via="gneE12" />
    
    <trip id="veh20" depart="1.01" from="gneE70" to="gneE30" type="passenger" via="gneE10" />
    <trip id="veh21" depart="1.02" from="gneE69" to="gneE28" type="passenger" via="gneE9" />
    <trip id="veh22" depart="1.03" from="gneE71" to="gneE34" type="passenger" via="gneE12" />
    <trip id="veh23" depart="1.04" from="gneE72" to="gneE33" type="passenger" via="gneE14" />
    <trip id="veh24" depart="1.05" from="gneE68" to="gneE34" type="passenger" via="gneE8" />
    <trip id="veh25" depart="1.06" from="gneE67" to="gneE33" type="passenger" via="gneE11" />
    <trip id="veh26" depart="1.07" from="gneE66" to="gneE32" type="passenger" via="gneE13" />
    <trip id="veh27" depart="1.08" from="gneE65" to="gneE30" type="passenger" via="gneE15" />
    <trip id="veh28" depart="1.09" from="gneE69" to="gneE26" type="passenger" via="gneE12" />
    <trip id="veh29" depart="1.10" from="gneE68" to="gneE39" type="passenger" via="gneE13" /> 
    
    <trip id="veh30" depart="2.21" from="gneE82" to="gneE73" type="passenger" via="gneE70" />
    <trip id="veh31" depart="2.22" from="gneE81" to="gneE73" type="passenger" via="gneE3" />
    <trip id="veh32" depart="2.23" from="gneE60" to="gneE35" type="passenger" via="gneE3" />
    <trip id="veh33" depart="2.24" from="gneE59" to="gneE35" type="passenger" via="gneE12" />
    <trip id="veh34" depart="2.25" from="gneE62" to="gneE37" type="passenger" via="gneE12" />
    <trip id="veh35" depart="2.26" from="gneE61" to="gneE37" type="passenger" via="gneE25" />
    <trip id="veh36" depart="2.27" from="gneE64" to="gneE39" type="passenger" via="gneE25" />
    <trip id="veh37" depart="2.28" from="gneE63" to="gneE39" type="passenger" via="gneE32" />
    <trip id="veh38" depart="2.29" from="gneE7" to="gneE22" type="passenger" via="gneE12" />
    <trip id="veh39" depart="2.30" from="gneE14" to="gneE34" type="passenger" via="gneE25" />
    
    <trip id="veh40" depart="3.41" from="gneE73" to="gneE81" type="passenger" via="gneE66" />
    <trip id="veh41" depart="3.42" from="gneE74" to="gneE82" type="passenger" via="gneE0" />
    <trip id="veh42" depart="3.43" from="gneE35" to="gneE59" type="passenger" via="gneE11" />
    <trip id="veh43" depart="3.44" from="gneE36" to="gneE60" type="passenger" via="gneE23" />
    <trip id="veh44" depart="3.45" from="gneE37" to="gneE61" type="passenger" via="gneE33" />
    <trip id="veh45" depart="3.46" from="gneE38" to="gneE62" type="passenger" via="gneE33" />
    <trip id="veh46" depart="3.47" from="gneE39" to="gneE63" type="passenger" via="gneE23" />
    <trip id="veh47" depart="3.48" from="gneE40" to="gneE64" type="passenger" via="gneE11" />
    <trip id="veh48" depart="3.49" from="gneE65" to="gneE61" type="passenger" via="gneE0" />
    <trip id="veh49" depart="3.50" from="gneE5" to="gneE64" type="passenger" via="gneE66" />
 --> 

   	<flow id="veh0" color="0,255,0"  begin="0" end= "500" period="15" type="passenger">
    	<route edges="gneE26 gneE45 gneE22 gneE39"/></flow>
   	<flow id="veh1" color="0,255,0"  begin="0" end= "500" period="15" type="passenger">
    	<route edges="gneE16 gneE46 gneE34 gneE40 "/></flow>	
   	<flow id="veh2" color="0,255,0"  begin="0" end= "500" period="15" type="passenger">
    	<route edges="gneE27 gneE51 gneE20 gneE46"/></flow>
   	<flow id="veh3" color="0,255,0"  begin="0" end= "500" period="15" type="passenger">
    	<route edges="gneE23 gneE50 gneE33 gneE45"/></flow> 
    <flow id="veh4" color="0,255,0"  begin="0" end= "500" period="15" type="passenger">
    	<route edges="gneE28 gneE56 gneE25 gneE50"/></flow> 
    <flow id="veh5" color="0,255,0"  begin="0" end= "500" period="15" type="passenger">
    	<route edges="gneE17 gneE55 gneE32 gneE51 "/></flow> 
    <flow id="veh6" color="0,255,0"  begin="0" end= "500" period="15" type="passenger">
    	<route edges="gneE29 gneE64 gneE18 gneE55"/></flow> 
    <flow id="veh7" color="0,255,0"  begin="0" end= "500" period="15" type="passenger">
    	<route edges="gneE19 gneE63 gneE30 gneE56 "/></flow> 
    	
   	<flow id="veh8" color="0,255,0"  begin="0" end= "500" period="15" type="passenger">
    	<route edges="gneE16 gneE44 gneE9 gneE37"/></flow>
   	<flow id="veh9" color="0,255,0"  begin="0" end= "500" period="15" type="passenger">
    	<route edges="gneE8 gneE43 gneE22 gneE38"/></flow>
   	<flow id="veh10" color="0,255,0"  begin="0" end= "500" period="15" type="passenger">
    	<route edges="gneE23 gneE49 gneE10 gneE43"/></flow>
   	<flow id="veh11" color="0,255,0"  begin="0" end= "500" period="15" type="passenger">
    	<route edges="gneE11 gneE52 gneE20 gneE44 "/></flow> 
    <flow id="veh12" color="0,255,0"  begin="0" end= "500" period="15" type="passenger">
    	<route edges="gneE17 gneE57 gneE12 gneE52"/></flow> 
    <flow id="veh13" color="0,255,0"  begin="0" end= "500" period="15" type="passenger">
    	<route edges="gneE13 gneE54 gneE25 gneE49 "/></flow> 
    <flow id="veh14" color="0,255,0"  begin="0" end= "500" period="15" type="passenger">
    	<route edges="gneE19 gneE62 gneE14 gneE54"/></flow> 
    <flow id="veh15" color="0,255,0"  begin="0" end= "500" period="15" type="passenger">
    	<route edges="gneE15 gneE61 gneE18 gneE57 "/></flow>     
      		
    <flow id="veh16" color="0,255,0"  begin="0" end= "500" period="15" type="passenger">
    	<route edges="gneE8 gneE42 gneE5 gneE35"/></flow>
   	<flow id="veh17" color="0,255,0"  begin="0" end= "500" period="15" type="passenger">
    	<route edges="gneE4 gneE41 gneE9 gneE36 "/></flow>
   	<flow id="veh18" color="0,255,0"  begin="0" end= "500" period="15" type="passenger">
    	<route edges="gneE11 gneE48 gneE1 gneE41"/></flow>
   	<flow id="veh19" color="0,255,0"  begin="0" end= "500" period="15" type="passenger">
    	<route edges="gneE0 gneE47 gneE10 gneE42 "/></flow> 
    <flow id="veh20" color="0,255,0"  begin="0" end= "500" period="15" type="passenger">
    	<route edges="gneE13 gneE58 gneE3 gneE47"/></flow> 
    <flow id="veh21" color="0,255,0"  begin="0" end= "500" period="15" type="passenger">
    	<route edges="gneE2 gneE53 gneE12 gneE48 "/></flow> 
    <flow id="veh22" color="0,255,0"  begin="0" end= "500" period="15" type="passenger">
    	<route edges="gneE15 gneE60 gneE7 gneE53"/></flow> 
    <flow id="veh23" color="0,255,0"  begin="0" end= "500" period="15" type="passenger">
    	<route edges="gneE6 gneE59 gneE14 gneE58 "/></flow>    
	
    <flow id="veh24" color="0,255,0"  begin="0" end= "500" period="15" type="passenger">
    	<route edges="gneE4 gneE76 gneE72 gneE73"/></flow>
   	<flow id="veh25" color="0,255,0"  begin="0" end= "500" period="15" type="passenger">
    	<route edges="gneE65 gneE75 gneE5 gneE74 "/></flow>
   	<flow id="veh26" color="0,255,0"  begin="0" end= "500" period="15" type="passenger">
    	<route edges="gneE0 gneE78 gneE71 gneE75"/></flow>
   	<flow id="veh27" color="0,255,0"  begin="0" end= "500" period="15" type="passenger">
    	<route edges="gneE66 gneE77 gneE1 gneE76 "/></flow> 
    <flow id="veh28" color="0,255,0"  begin="0" end= "500" period="15" type="passenger">
    	<route edges="gneE2 gneE80 gneE70 gneE77"/></flow> 
    <flow id="veh29" color="0,255,0"  begin="0" end= "500" period="15" type="passenger">
    	<route edges="gneE67 gneE79 gneE3 gneE78 "/></flow> 
    <flow id="veh30" color="0,255,0"  begin="0" end= "500" period="15" type="passenger">
    	<route edges="gneE6 gneE82 gneE69 gneE79"/></flow> 
    <flow id="veh31" color="0,255,0"  begin="0" end= "500" period="15" type="passenger">
    	<route edges="gneE68 gneE81 gneE7 gneE80 "/></flow>
    	  
    <flow id="veh32" color="0,255,0"  begin="0" end= "500" period="15" type="passenger">
    	<route edges="gneE32 gneE33 gneE34 gneE40 gneE38 gneE36 gneE74 gneE65 gneE66 gneE67 gneE68
    	gneE81 gneE59 gneE61 gneE63 gneE30 gneE32 "/></flow> 
    <flow id="veh33" color="0,255,0"  begin="0" end= "500" period="15" type="passenger">
    	<route edges="gneE30 gneE32 gneE33 gneE34 gneE40 gneE38 gneE36 gneE74 gneE65 gneE66 gneE67 gneE68
    	gneE81 gneE59 gneE61 gneE63 gneE30"/></flow> 
    <flow id="veh34" color="0,255,0"  begin="0" end= "500" period="15" type="passenger">
    	<route edges="gneE69 gneE70 gneE71 gneE72 gneE73 gneE35 gneE37 gneE39 gneE26 gneE27 gneE28 gneE29
    	gneE64 gneE62 gneE60 gneE82 gneE69"/></flow>
    <flow id="veh35" color="0,255,0"  begin="0" end= "500" period="15" type="passenger">
    	<route edges="gneE70 gneE71 gneE72 gneE73 gneE35 gneE37 gneE39 gneE26 gneE27 gneE28 gneE29
    	gneE64 gneE62 gneE60 gneE82 gneE69 gneE70"/></flow>     	    	
  <!--   	
	<vehicle id="target" type="target" depart="50">
        <route edges="gneE26 gneE45 gneE23 gneE49 gneE13 gneE58 gneE6 gneE82"/>
	</vehicle>
  --> 
	<vehicle color="255,0,0" id="target" type="target" depart="100">
        <route edges="gneE26 gneE27 gneE28 gneE56 gneE25 gneE20
        gneE44 gneE11 gneE13 gneE58 gneE3 gneE1 gneE76 gneE66 gneE67 gneE68 "/>
        
	</vehicle> 
</routes>
