<?xml version="1.0" encoding="UTF-8"?>



<net version="0.27" xmlns:xsi="http://www.w3.org/2001/XMLSchema-instance" xsi:noNamespaceSchemaLocation="http://sumo.dlr.de/xsd/net_file.xsd">

    <location netOffset="0.00,0.00" convBoundary="-400.00,-400.00,400.00,400.00" origBoundary="-10000000000.00,-10000000000.00,10000000000.00,10000000000.00" projParameter="!"/>

    <edge id=":cross1_0" function="internal">
        <lane id=":cross1_0_0" index="0" speed="13.89" length="18.55" shape="-393.45,404.95 -398.48,404.23 -402.07,402.07 -404.23,398.48 -404.95,393.45"/>
    </edge>
    <edge id=":cross1_1" function="internal">
        <lane id=":cross1_1_0" index="0" speed="13.89" length="13.22" shape="-393.45,401.65 -397.04,401.14 -399.60,399.60 -401.14,397.04 -401.65,393.45"/>
    </edge>
    <edge id=":cross1_2" function="internal">
        <lane id=":cross1_2_0" index="0" speed="13.89" length="2.58" shape="-395.05,393.45 -394.95,394.15 -394.65,394.65 -394.15,394.95 -393.45,395.05"/>
    </edge>
    <edge id=":cross1_3" function="internal">
        <lane id=":cross1_3_0" index="0" speed="13.89" length="7.90" shape="-398.35,393.45 -398.04,395.59 -397.13,397.13 -395.59,398.04 -393.45,398.35"/>
    </edge>
    <edge id=":cross10_0" function="internal">
        <lane id=":cross10_0_0" index="0" speed="13.89" length="5.00" shape="395.05,208.05 394.86,206.69 394.28,205.73 393.31,205.14 391.95,204.95"/>
    </edge>
    <edge id=":cross10_1" function="internal">
        <lane id=":cross10_1_0" index="0" speed="13.89" length="16.10" shape="395.05,208.05 395.05,191.95"/>
        <lane id=":cross10_1_1" index="1" speed="13.89" length="16.10" shape="398.35,208.05 398.35,191.95"/>
    </edge>
    <edge id=":cross10_3" function="internal">
        <lane id=":cross10_3_0" index="0" speed="13.89" length="16.10" shape="404.95,191.95 404.95,208.05"/>
        <lane id=":cross10_3_1" index="1" speed="13.89" length="16.10" shape="401.65,191.95 401.65,208.05"/>
    </edge>
    <edge id=":cross10_5" function="internal">
        <lane id=":cross10_5_0" index="0" speed="13.89" length="6.41" shape="401.65,191.95 401.04,196.19 399.95,198.02"/>
    </edge>
    <edge id=":cross10_8" function="internal">
        <lane id=":cross10_8_0" index="0" speed="13.89" length="9.23" shape="399.95,198.02 399.22,199.22 396.19,201.04 391.95,201.65"/>
    </edge>
    <edge id=":cross10_6" function="internal">
        <lane id=":cross10_6_0" index="0" speed="13.89" length="5.00" shape="391.95,195.05 393.31,194.86 394.27,194.28 394.86,193.31 395.05,191.95"/>
    </edge>
    <edge id=":cross10_7" function="internal">
        <lane id=":cross10_7_0" index="0" speed="13.89" length="15.64" shape="391.95,198.35 396.19,198.96 399.23,200.77 401.04,203.81 401.65,208.05"/>
    </edge>
    <edge id=":cross11_0" function="internal">
        <lane id=":cross11_0_0" index="0" speed="13.89" length="16.10" shape="-404.95,8.05 -404.95,-8.05"/>
        <lane id=":cross11_0_1" index="1" speed="13.89" length="16.10" shape="-401.65,8.05 -401.65,-8.05"/>
    </edge>
    <edge id=":cross11_2" function="internal">
        <lane id=":cross11_2_0" index="0" speed="13.89" length="6.41" shape="-401.65,8.05 -401.04,3.81 -399.95,1.98"/>
    </edge>
    <edge id=":cross11_8" function="internal">
        <lane id=":cross11_8_0" index="0" speed="13.89" length="9.23" shape="-399.95,1.98 -399.22,0.77 -396.19,-1.04 -391.95,-1.65"/>
    </edge>
    <edge id=":cross11_3" function="internal">
        <lane id=":cross11_3_0" index="0" speed="13.89" length="5.00" shape="-391.95,4.95 -393.31,5.14 -394.27,5.73 -394.86,6.69 -395.05,8.05"/>
    </edge>
    <edge id=":cross11_4" function="internal">
        <lane id=":cross11_4_0" index="0" speed="13.89" length="15.64" shape="-391.95,1.65 -396.19,1.04 -399.23,-0.78 -401.04,-3.81 -401.65,-8.05"/>
    </edge>
    <edge id=":cross11_5" function="internal">
        <lane id=":cross11_5_0" index="0" speed="13.89" length="5.00" shape="-395.05,-8.05 -394.86,-6.69 -394.28,-5.72 -393.31,-5.14 -391.95,-4.95"/>
    </edge>
    <edge id=":cross11_6" function="internal">
        <lane id=":cross11_6_0" index="0" speed="13.89" length="16.10" shape="-395.05,-8.05 -395.05,8.05"/>
        <lane id=":cross11_6_1" index="1" speed="13.89" length="16.10" shape="-398.35,-8.05 -398.35,8.05"/>
    </edge>
    <edge id=":cross12_0" function="internal">
        <lane id=":cross12_0_0" index="0" speed="13.89" length="5.00" shape="-204.95,8.05 -205.14,6.69 -205.72,5.73 -206.69,5.14 -208.05,4.95"/>
    </edge>
    <edge id=":cross12_1" function="internal">
        <lane id=":cross12_1_0" index="0" speed="13.89" length="16.10" shape="-204.95,8.05 -204.95,-8.05"/>
        <lane id=":cross12_1_1" index="1" speed="13.89" length="16.10" shape="-201.65,8.05 -201.65,-8.05"/>
    </edge>
    <edge id=":cross12_3" function="internal">
        <lane id=":cross12_3_0" index="0" speed="13.89" length="6.41" shape="-201.65,8.05 -201.04,3.81 -199.95,1.98"/>
    </edge>
    <edge id=":cross12_16" function="internal">
        <lane id=":cross12_16_0" index="0" speed="13.89" length="9.23" shape="-199.95,1.98 -199.23,0.77 -196.19,-1.04 -191.95,-1.65"/>
    </edge>
    <edge id=":cross12_4" function="internal">
        <lane id=":cross12_4_0" index="0" speed="13.89" length="5.00" shape="-191.95,4.95 -193.31,5.14 -194.27,5.73 -194.86,6.69 -195.05,8.05"/>
    </edge>
    <edge id=":cross12_5" function="internal">
        <lane id=":cross12_5_0" index="0" speed="13.89" length="16.10" shape="-191.95,4.95 -208.05,4.95"/>
        <lane id=":cross12_5_1" index="1" speed="13.89" length="16.10" shape="-191.95,1.65 -208.05,1.65"/>
    </edge>
    <edge id=":cross12_7" function="internal">
        <lane id=":cross12_7_0" index="0" speed="13.89" length="15.64" shape="-191.95,1.65 -196.19,1.04 -199.22,-0.78 -201.04,-3.81 -201.65,-8.05"/>
    </edge>
    <edge id=":cross12_8" function="internal">
        <lane id=":cross12_8_0" index="0" speed="13.89" length="5.00" shape="-195.05,-8.05 -194.86,-6.69 -194.28,-5.73 -193.31,-5.14 -191.95,-4.95"/>
    </edge>
    <edge id=":cross12_9" function="internal">
        <lane id=":cross12_9_0" index="0" speed="13.89" length="16.10" shape="-195.05,-8.05 -195.05,8.05"/>
        <lane id=":cross12_9_1" index="1" speed="13.89" length="16.10" shape="-198.35,-8.05 -198.35,8.05"/>
    </edge>
    <edge id=":cross12_11" function="internal">
        <lane id=":cross12_11_0" index="0" speed="13.89" length="6.41" shape="-198.35,-8.05 -198.96,-3.81 -200.05,-1.98"/>
    </edge>
    <edge id=":cross12_17" function="internal">
        <lane id=":cross12_17_0" index="0" speed="13.89" length="9.23" shape="-200.05,-1.98 -200.77,-0.77 -203.81,1.04 -208.05,1.65"/>
    </edge>
    <edge id=":cross12_12" function="internal">
        <lane id=":cross12_12_0" index="0" speed="13.89" length="5.00" shape="-208.05,-4.95 -206.69,-5.14 -205.73,-5.73 -205.14,-6.69 -204.95,-8.05"/>
    </edge>
    <edge id=":cross12_13" function="internal">
        <lane id=":cross12_13_0" index="0" speed="13.89" length="16.10" shape="-208.05,-4.95 -191.95,-4.95"/>
        <lane id=":cross12_13_1" index="1" speed="13.89" length="16.10" shape="-208.05,-1.65 -191.95,-1.65"/>
    </edge>
    <edge id=":cross12_15" function="internal">
        <lane id=":cross12_15_0" index="0" speed="13.89" length="15.64" shape="-208.05,-1.65 -203.81,-1.04 -200.78,0.78 -198.96,3.81 -198.35,8.05"/>
    </edge>
    <edge id=":cross13_0" function="internal">
        <lane id=":cross13_0_0" index="0" speed="13.89" length="5.00" shape="-4.95,8.05 -5.14,6.69 -5.73,5.73 -6.69,5.14 -8.05,4.95"/>
    </edge>
    <edge id=":cross13_1" function="internal">
        <lane id=":cross13_1_0" index="0" speed="13.89" length="16.10" shape="-4.95,8.05 -4.95,-8.05"/>
        <lane id=":cross13_1_1" index="1" speed="13.89" length="16.10" shape="-1.65,8.05 -1.65,-8.05"/>
    </edge>
    <edge id=":cross13_3" function="internal">
        <lane id=":cross13_3_0" index="0" speed="13.89" length="6.41" shape="-1.65,8.05 -1.04,3.81 0.05,1.98"/>
    </edge>
    <edge id=":cross13_16" function="internal">
        <lane id=":cross13_16_0" index="0" speed="13.89" length="9.23" shape="0.05,1.98 0.78,0.77 3.81,-1.04 8.05,-1.65"/>
    </edge>
    <edge id=":cross13_4" function="internal">
        <lane id=":cross13_4_0" index="0" speed="13.89" length="5.00" shape="8.05,4.95 6.69,5.14 5.73,5.73 5.14,6.69 4.95,8.05"/>
    </edge>
    <edge id=":cross13_5" function="internal">
        <lane id=":cross13_5_0" index="0" speed="13.89" length="16.10" shape="8.05,4.95 -8.05,4.95"/>
        <lane id=":cross13_5_1" index="1" speed="13.89" length="16.10" shape="8.05,1.65 -8.05,1.65"/>
    </edge>
    <edge id=":cross13_7" function="internal">
        <lane id=":cross13_7_0" index="0" speed="13.89" length="15.64" shape="8.05,1.65 3.81,1.04 0.77,-0.78 -1.04,-3.81 -1.65,-8.05"/>
    </edge>
    <edge id=":cross13_8" function="internal">
        <lane id=":cross13_8_0" index="0" speed="13.89" length="5.00" shape="4.95,-8.05 5.14,-6.69 5.73,-5.73 6.69,-5.14 8.05,-4.95"/>
    </edge>
    <edge id=":cross13_9" function="internal">
        <lane id=":cross13_9_0" index="0" speed="13.89" length="16.10" shape="4.95,-8.05 4.95,8.05"/>
        <lane id=":cross13_9_1" index="1" speed="13.89" length="16.10" shape="1.65,-8.05 1.65,8.05"/>
    </edge>
    <edge id=":cross13_11" function="internal">
        <lane id=":cross13_11_0" index="0" speed="13.89" length="6.41" shape="1.65,-8.05 1.04,-3.81 -0.05,-1.98"/>
    </edge>
    <edge id=":cross13_17" function="internal">
        <lane id=":cross13_17_0" index="0" speed="13.89" length="9.23" shape="-0.05,-1.98 -0.78,-0.77 -3.81,1.04 -8.05,1.65"/>
    </edge>
    <edge id=":cross13_12" function="internal">
        <lane id=":cross13_12_0" index="0" speed="13.89" length="5.00" shape="-8.05,-4.95 -6.69,-5.14 -5.73,-5.73 -5.14,-6.69 -4.95,-8.05"/>
    </edge>
    <edge id=":cross13_13" function="internal">
        <lane id=":cross13_13_0" index="0" speed="13.89" length="16.10" shape="-8.05,-4.95 8.05,-4.95"/>
        <lane id=":cross13_13_1" index="1" speed="13.89" length="16.10" shape="-8.05,-1.65 8.05,-1.65"/>
    </edge>
    <edge id=":cross13_15" function="internal">
        <lane id=":cross13_15_0" index="0" speed="13.89" length="15.64" shape="-8.05,-1.65 -3.81,-1.04 -0.77,0.78 1.04,3.81 1.65,8.05"/>
    </edge>
    <edge id=":cross14_0" function="internal">
        <lane id=":cross14_0_0" index="0" speed="13.89" length="5.00" shape="195.05,8.05 194.86,6.69 194.28,5.73 193.31,5.14 191.95,4.95"/>
    </edge>
    <edge id=":cross14_1" function="internal">
        <lane id=":cross14_1_0" index="0" speed="13.89" length="16.10" shape="195.05,8.05 195.05,-8.05"/>
        <lane id=":cross14_1_1" index="1" speed="13.89" length="16.10" shape="198.35,8.05 198.35,-8.05"/>
    </edge>
    <edge id=":cross14_3" function="internal">
        <lane id=":cross14_3_0" index="0" speed="13.89" length="6.41" shape="198.35,8.05 198.96,3.81 200.05,1.98"/>
    </edge>
    <edge id=":cross14_16" function="internal">
        <lane id=":cross14_16_0" index="0" speed="13.89" length="9.23" shape="200.05,1.98 200.77,0.77 203.81,-1.04 208.05,-1.65"/>
    </edge>
    <edge id=":cross14_4" function="internal">
        <lane id=":cross14_4_0" index="0" speed="13.89" length="5.00" shape="208.05,4.95 206.69,5.14 205.73,5.73 205.14,6.69 204.95,8.05"/>
    </edge>
    <edge id=":cross14_5" function="internal">
        <lane id=":cross14_5_0" index="0" speed="13.89" length="16.10" shape="208.05,4.95 191.95,4.95"/>
        <lane id=":cross14_5_1" index="1" speed="13.89" length="16.10" shape="208.05,1.65 191.95,1.65"/>
    </edge>
    <edge id=":cross14_7" function="internal">
        <lane id=":cross14_7_0" index="0" speed="13.89" length="15.64" shape="208.05,1.65 203.81,1.04 200.78,-0.78 198.96,-3.81 198.35,-8.05"/>
    </edge>
    <edge id=":cross14_8" function="internal">
        <lane id=":cross14_8_0" index="0" speed="13.89" length="5.00" shape="204.95,-8.05 205.14,-6.69 205.72,-5.73 206.69,-5.14 208.05,-4.95"/>
    </edge>
    <edge id=":cross14_9" function="internal">
        <lane id=":cross14_9_0" index="0" speed="13.89" length="16.10" shape="204.95,-8.05 204.95,8.05"/>
        <lane id=":cross14_9_1" index="1" speed="13.89" length="16.10" shape="201.65,-8.05 201.65,8.05"/>
    </edge>
    <edge id=":cross14_11" function="internal">
        <lane id=":cross14_11_0" index="0" speed="13.89" length="6.41" shape="201.65,-8.05 201.04,-3.81 199.95,-1.98"/>
    </edge>
    <edge id=":cross14_17" function="internal">
        <lane id=":cross14_17_0" index="0" speed="13.89" length="9.23" shape="199.95,-1.98 199.23,-0.77 196.19,1.04 191.95,1.65"/>
    </edge>
    <edge id=":cross14_12" function="internal">
        <lane id=":cross14_12_0" index="0" speed="13.89" length="5.00" shape="191.95,-4.95 193.31,-5.14 194.27,-5.73 194.86,-6.69 195.05,-8.05"/>
    </edge>
    <edge id=":cross14_13" function="internal">
        <lane id=":cross14_13_0" index="0" speed="13.89" length="16.10" shape="191.95,-4.95 208.05,-4.95"/>
        <lane id=":cross14_13_1" index="1" speed="13.89" length="16.10" shape="191.95,-1.65 208.05,-1.65"/>
    </edge>
    <edge id=":cross14_15" function="internal">
        <lane id=":cross14_15_0" index="0" speed="13.89" length="15.64" shape="191.95,-1.65 196.19,-1.04 199.22,0.78 201.04,3.81 201.65,8.05"/>
    </edge>
    <edge id=":cross15_0" function="internal">
        <lane id=":cross15_0_0" index="0" speed="13.89" length="5.00" shape="395.05,8.05 394.86,6.69 394.28,5.72 393.31,5.14 391.95,4.95"/>
    </edge>
    <edge id=":cross15_1" function="internal">
        <lane id=":cross15_1_0" index="0" speed="13.89" length="16.10" shape="395.05,8.05 395.05,-8.05"/>
        <lane id=":cross15_1_1" index="1" speed="13.89" length="16.10" shape="398.35,8.05 398.35,-8.05"/>
    </edge>
    <edge id=":cross15_3" function="internal">
        <lane id=":cross15_3_0" index="0" speed="13.89" length="16.10" shape="404.95,-8.05 404.95,8.05"/>
        <lane id=":cross15_3_1" index="1" speed="13.89" length="16.10" shape="401.65,-8.05 401.65,8.05"/>
    </edge>
    <edge id=":cross15_5" function="internal">
        <lane id=":cross15_5_0" index="0" speed="13.89" length="6.41" shape="401.65,-8.05 401.04,-3.81 399.95,-1.98"/>
    </edge>
    <edge id=":cross15_8" function="internal">
        <lane id=":cross15_8_0" index="0" speed="13.89" length="9.23" shape="399.95,-1.98 399.22,-0.77 396.19,1.04 391.95,1.65"/>
    </edge>
    <edge id=":cross15_6" function="internal">
        <lane id=":cross15_6_0" index="0" speed="13.89" length="5.00" shape="391.95,-4.95 393.31,-5.14 394.27,-5.73 394.86,-6.69 395.05,-8.05"/>
    </edge>
    <edge id=":cross15_7" function="internal">
        <lane id=":cross15_7_0" index="0" speed="13.89" length="15.64" shape="391.95,-1.65 396.19,-1.04 399.23,0.78 401.04,3.81 401.65,8.05"/>
    </edge>
    <edge id=":cross16_0" function="internal">
        <lane id=":cross16_0_0" index="0" speed="13.89" length="16.10" shape="-404.95,-191.95 -404.95,-208.05"/>
        <lane id=":cross16_0_1" index="1" speed="13.89" length="16.10" shape="-401.65,-191.95 -401.65,-208.05"/>
    </edge>
    <edge id=":cross16_2" function="internal">
        <lane id=":cross16_2_0" index="0" speed="13.89" length="6.41" shape="-401.65,-191.95 -401.04,-196.19 -399.95,-198.02"/>
    </edge>
    <edge id=":cross16_8" function="internal">
        <lane id=":cross16_8_0" index="0" speed="13.89" length="9.23" shape="-399.95,-198.02 -399.22,-199.22 -396.19,-201.04 -391.95,-201.65"/>
    </edge>
    <edge id=":cross16_3" function="internal">
        <lane id=":cross16_3_0" index="0" speed="13.89" length="5.00" shape="-391.95,-195.05 -393.31,-194.86 -394.27,-194.28 -394.86,-193.31 -395.05,-191.95"/>
    </edge>
    <edge id=":cross16_4" function="internal">
        <lane id=":cross16_4_0" index="0" speed="13.89" length="15.64" shape="-391.95,-198.35 -396.19,-198.96 -399.23,-200.77 -401.04,-203.81 -401.65,-208.05"/>
    </edge>
    <edge id=":cross16_5" function="internal">
        <lane id=":cross16_5_0" index="0" speed="13.89" length="5.00" shape="-395.05,-208.05 -394.86,-206.69 -394.28,-205.73 -393.31,-205.14 -391.95,-204.95"/>
    </edge>
    <edge id=":cross16_6" function="internal">
        <lane id=":cross16_6_0" index="0" speed="13.89" length="16.10" shape="-395.05,-208.05 -395.05,-191.95"/>
        <lane id=":cross16_6_1" index="1" speed="13.89" length="16.10" shape="-398.35,-208.05 -398.35,-191.95"/>
    </edge>
    <edge id=":cross17_0" function="internal">
        <lane id=":cross17_0_0" index="0" speed="13.89" length="5.00" shape="-204.95,-191.95 -205.14,-193.31 -205.72,-194.27 -206.69,-194.86 -208.05,-195.05"/>
    </edge>
    <edge id=":cross17_1" function="internal">
        <lane id=":cross17_1_0" index="0" speed="13.89" length="16.10" shape="-204.95,-191.95 -204.95,-208.05"/>
        <lane id=":cross17_1_1" index="1" speed="13.89" length="16.10" shape="-201.65,-191.95 -201.65,-208.05"/>
    </edge>
    <edge id=":cross17_3" function="internal">
        <lane id=":cross17_3_0" index="0" speed="13.89" length="6.41" shape="-201.65,-191.95 -201.04,-196.19 -199.95,-198.02"/>
    </edge>
    <edge id=":cross17_16" function="internal">
        <lane id=":cross17_16_0" index="0" speed="13.89" length="9.23" shape="-199.95,-198.02 -199.23,-199.22 -196.19,-201.04 -191.95,-201.65"/>
    </edge>
    <edge id=":cross17_4" function="internal">
        <lane id=":cross17_4_0" index="0" speed="13.89" length="5.00" shape="-191.95,-195.05 -193.31,-194.86 -194.27,-194.28 -194.86,-193.31 -195.05,-191.95"/>
    </edge>
    <edge id=":cross17_5" function="internal">
        <lane id=":cross17_5_0" index="0" speed="13.89" length="16.10" shape="-191.95,-195.05 -208.05,-195.05"/>
        <lane id=":cross17_5_1" index="1" speed="13.89" length="16.10" shape="-191.95,-198.35 -208.05,-198.35"/>
    </edge>
    <edge id=":cross17_7" function="internal">
        <lane id=":cross17_7_0" index="0" speed="13.89" length="15.64" shape="-191.95,-198.35 -196.19,-198.96 -199.22,-200.77 -201.04,-203.81 -201.65,-208.05"/>
    </edge>
    <edge id=":cross17_8" function="internal">
        <lane id=":cross17_8_0" index="0" speed="13.89" length="5.00" shape="-195.05,-208.05 -194.86,-206.69 -194.28,-205.73 -193.31,-205.14 -191.95,-204.95"/>
    </edge>
    <edge id=":cross17_9" function="internal">
        <lane id=":cross17_9_0" index="0" speed="13.89" length="16.10" shape="-195.05,-208.05 -195.05,-191.95"/>
        <lane id=":cross17_9_1" index="1" speed="13.89" length="16.10" shape="-198.35,-208.05 -198.35,-191.95"/>
    </edge>
    <edge id=":cross17_11" function="internal">
        <lane id=":cross17_11_0" index="0" speed="13.89" length="6.41" shape="-198.35,-208.05 -198.96,-203.81 -200.05,-201.98"/>
    </edge>
    <edge id=":cross17_17" function="internal">
        <lane id=":cross17_17_0" index="0" speed="13.89" length="9.23" shape="-200.05,-201.98 -200.77,-200.78 -203.81,-198.96 -208.05,-198.35"/>
    </edge>
    <edge id=":cross17_12" function="internal">
        <lane id=":cross17_12_0" index="0" speed="13.89" length="5.00" shape="-208.05,-204.95 -206.69,-205.14 -205.73,-205.72 -205.14,-206.69 -204.95,-208.05"/>
    </edge>
    <edge id=":cross17_13" function="internal">
        <lane id=":cross17_13_0" index="0" speed="13.89" length="16.10" shape="-208.05,-204.95 -191.95,-204.95"/>
        <lane id=":cross17_13_1" index="1" speed="13.89" length="16.10" shape="-208.05,-201.65 -191.95,-201.65"/>
    </edge>
    <edge id=":cross17_15" function="internal">
        <lane id=":cross17_15_0" index="0" speed="13.89" length="15.64" shape="-208.05,-201.65 -203.81,-201.04 -200.78,-199.23 -198.96,-196.19 -198.35,-191.95"/>
    </edge>
    <edge id=":cross18_0" function="internal">
        <lane id=":cross18_0_0" index="0" speed="13.89" length="5.00" shape="-4.95,-191.95 -5.14,-193.31 -5.73,-194.27 -6.69,-194.86 -8.05,-195.05"/>
    </edge>
    <edge id=":cross18_1" function="internal">
        <lane id=":cross18_1_0" index="0" speed="13.89" length="16.10" shape="-4.95,-191.95 -4.95,-208.05"/>
        <lane id=":cross18_1_1" index="1" speed="13.89" length="16.10" shape="-1.65,-191.95 -1.65,-208.05"/>
    </edge>
    <edge id=":cross18_3" function="internal">
        <lane id=":cross18_3_0" index="0" speed="13.89" length="6.41" shape="-1.65,-191.95 -1.04,-196.19 0.05,-198.02"/>
    </edge>
    <edge id=":cross18_16" function="internal">
        <lane id=":cross18_16_0" index="0" speed="13.89" length="9.23" shape="0.05,-198.02 0.78,-199.22 3.81,-201.04 8.05,-201.65"/>
    </edge>
    <edge id=":cross18_4" function="internal">
        <lane id=":cross18_4_0" index="0" speed="13.89" length="5.00" shape="8.05,-195.05 6.69,-194.86 5.73,-194.28 5.14,-193.31 4.95,-191.95"/>
    </edge>
    <edge id=":cross18_5" function="internal">
        <lane id=":cross18_5_0" index="0" speed="13.89" length="16.10" shape="8.05,-195.05 -8.05,-195.05"/>
        <lane id=":cross18_5_1" index="1" speed="13.89" length="16.10" shape="8.05,-198.35 -8.05,-198.35"/>
    </edge>
    <edge id=":cross18_7" function="internal">
        <lane id=":cross18_7_0" index="0" speed="13.89" length="15.64" shape="8.05,-198.35 3.81,-198.96 0.77,-200.77 -1.04,-203.81 -1.65,-208.05"/>
    </edge>
    <edge id=":cross18_8" function="internal">
        <lane id=":cross18_8_0" index="0" speed="13.89" length="5.00" shape="4.95,-208.05 5.14,-206.69 5.73,-205.73 6.69,-205.14 8.05,-204.95"/>
    </edge>
    <edge id=":cross18_9" function="internal">
        <lane id=":cross18_9_0" index="0" speed="13.89" length="16.10" shape="4.95,-208.05 4.95,-191.95"/>
        <lane id=":cross18_9_1" index="1" speed="13.89" length="16.10" shape="1.65,-208.05 1.65,-191.95"/>
    </edge>
    <edge id=":cross18_11" function="internal">
        <lane id=":cross18_11_0" index="0" speed="13.89" length="6.41" shape="1.65,-208.05 1.04,-203.81 -0.05,-201.98"/>
    </edge>
    <edge id=":cross18_17" function="internal">
        <lane id=":cross18_17_0" index="0" speed="13.89" length="9.23" shape="-0.05,-201.98 -0.78,-200.78 -3.81,-198.96 -8.05,-198.35"/>
    </edge>
    <edge id=":cross18_12" function="internal">
        <lane id=":cross18_12_0" index="0" speed="13.89" length="5.00" shape="-8.05,-204.95 -6.69,-205.14 -5.73,-205.72 -5.14,-206.69 -4.95,-208.05"/>
    </edge>
    <edge id=":cross18_13" function="internal">
        <lane id=":cross18_13_0" index="0" speed="13.89" length="16.10" shape="-8.05,-204.95 8.05,-204.95"/>
        <lane id=":cross18_13_1" index="1" speed="13.89" length="16.10" shape="-8.05,-201.65 8.05,-201.65"/>
    </edge>
    <edge id=":cross18_15" function="internal">
        <lane id=":cross18_15_0" index="0" speed="13.89" length="15.64" shape="-8.05,-201.65 -3.81,-201.04 -0.77,-199.23 1.04,-196.19 1.65,-191.95"/>
    </edge>
    <edge id=":cross19_0" function="internal">
        <lane id=":cross19_0_0" index="0" speed="13.89" length="5.00" shape="195.05,-191.95 194.86,-193.31 194.28,-194.27 193.31,-194.86 191.95,-195.05"/>
    </edge>
    <edge id=":cross19_1" function="internal">
        <lane id=":cross19_1_0" index="0" speed="13.89" length="16.10" shape="195.05,-191.95 195.05,-208.05"/>
        <lane id=":cross19_1_1" index="1" speed="13.89" length="16.10" shape="198.35,-191.95 198.35,-208.05"/>
    </edge>
    <edge id=":cross19_3" function="internal">
        <lane id=":cross19_3_0" index="0" speed="13.89" length="6.41" shape="198.35,-191.95 198.96,-196.19 200.05,-198.02"/>
    </edge>
    <edge id=":cross19_16" function="internal">
        <lane id=":cross19_16_0" index="0" speed="13.89" length="9.23" shape="200.05,-198.02 200.77,-199.22 203.81,-201.04 208.05,-201.65"/>
    </edge>
    <edge id=":cross19_4" function="internal">
        <lane id=":cross19_4_0" index="0" speed="13.89" length="5.00" shape="208.05,-195.05 206.69,-194.86 205.73,-194.28 205.14,-193.31 204.95,-191.95"/>
    </edge>
    <edge id=":cross19_5" function="internal">
        <lane id=":cross19_5_0" index="0" speed="13.89" length="16.10" shape="208.05,-195.05 191.95,-195.05"/>
        <lane id=":cross19_5_1" index="1" speed="13.89" length="16.10" shape="208.05,-198.35 191.95,-198.35"/>
    </edge>
    <edge id=":cross19_7" function="internal">
        <lane id=":cross19_7_0" index="0" speed="13.89" length="15.64" shape="208.05,-198.35 203.81,-198.96 200.78,-200.77 198.96,-203.81 198.35,-208.05"/>
    </edge>
    <edge id=":cross19_8" function="internal">
        <lane id=":cross19_8_0" index="0" speed="13.89" length="5.00" shape="204.95,-208.05 205.14,-206.69 205.72,-205.73 206.69,-205.14 208.05,-204.95"/>
    </edge>
    <edge id=":cross19_9" function="internal">
        <lane id=":cross19_9_0" index="0" speed="13.89" length="16.10" shape="204.95,-208.05 204.95,-191.95"/>
        <lane id=":cross19_9_1" index="1" speed="13.89" length="16.10" shape="201.65,-208.05 201.65,-191.95"/>
    </edge>
    <edge id=":cross19_11" function="internal">
        <lane id=":cross19_11_0" index="0" speed="13.89" length="6.41" shape="201.65,-208.05 201.04,-203.81 199.95,-201.98"/>
    </edge>
    <edge id=":cross19_17" function="internal">
        <lane id=":cross19_17_0" index="0" speed="13.89" length="9.23" shape="199.95,-201.98 199.23,-200.78 196.19,-198.96 191.95,-198.35"/>
    </edge>
    <edge id=":cross19_12" function="internal">
        <lane id=":cross19_12_0" index="0" speed="13.89" length="5.00" shape="191.95,-204.95 193.31,-205.14 194.27,-205.72 194.86,-206.69 195.05,-208.05"/>
    </edge>
    <edge id=":cross19_13" function="internal">
        <lane id=":cross19_13_0" index="0" speed="13.89" length="16.10" shape="191.95,-204.95 208.05,-204.95"/>
        <lane id=":cross19_13_1" index="1" speed="13.89" length="16.10" shape="191.95,-201.65 208.05,-201.65"/>
    </edge>
    <edge id=":cross19_15" function="internal">
        <lane id=":cross19_15_0" index="0" speed="13.89" length="15.64" shape="191.95,-201.65 196.19,-201.04 199.22,-199.23 201.04,-196.19 201.65,-191.95"/>
    </edge>
    <edge id=":cross2_0" function="internal">
        <lane id=":cross2_0_0" index="0" speed="13.89" length="16.10" shape="-191.95,404.95 -208.05,404.95"/>
        <lane id=":cross2_0_1" index="1" speed="13.89" length="16.10" shape="-191.95,401.65 -208.05,401.65"/>
    </edge>
    <edge id=":cross2_2" function="internal">
        <lane id=":cross2_2_0" index="0" speed="13.89" length="6.41" shape="-191.95,401.65 -196.19,401.04 -198.02,399.95"/>
    </edge>
    <edge id=":cross2_8" function="internal">
        <lane id=":cross2_8_0" index="0" speed="13.89" length="9.23" shape="-198.02,399.95 -199.22,399.22 -201.04,396.19 -201.65,391.95"/>
    </edge>
    <edge id=":cross2_3" function="internal">
        <lane id=":cross2_3_0" index="0" speed="13.89" length="5.00" shape="-195.05,391.95 -194.86,393.31 -194.28,394.27 -193.31,394.86 -191.95,395.05"/>
    </edge>
    <edge id=":cross2_4" function="internal">
        <lane id=":cross2_4_0" index="0" speed="13.89" length="15.64" shape="-198.35,391.95 -198.96,396.19 -200.77,399.23 -203.81,401.04 -208.05,401.65"/>
    </edge>
    <edge id=":cross2_5" function="internal">
        <lane id=":cross2_5_0" index="0" speed="13.89" length="5.00" shape="-208.05,395.05 -206.69,394.86 -205.73,394.28 -205.14,393.31 -204.95,391.95"/>
    </edge>
    <edge id=":cross2_6" function="internal">
        <lane id=":cross2_6_0" index="0" speed="13.89" length="16.10" shape="-208.05,395.05 -191.95,395.05"/>
        <lane id=":cross2_6_1" index="1" speed="13.89" length="16.10" shape="-208.05,398.35 -191.95,398.35"/>
    </edge>
    <edge id=":cross20_0" function="internal">
        <lane id=":cross20_0_0" index="0" speed="13.89" length="5.00" shape="395.05,-191.95 394.86,-193.31 394.28,-194.27 393.31,-194.86 391.95,-195.05"/>
    </edge>
    <edge id=":cross20_1" function="internal">
        <lane id=":cross20_1_0" index="0" speed="13.89" length="16.10" shape="395.05,-191.95 395.05,-208.05"/>
        <lane id=":cross20_1_1" index="1" speed="13.89" length="16.10" shape="398.35,-191.95 398.35,-208.05"/>
    </edge>
    <edge id=":cross20_3" function="internal">
        <lane id=":cross20_3_0" index="0" speed="13.89" length="16.10" shape="404.95,-208.05 404.95,-191.95"/>
        <lane id=":cross20_3_1" index="1" speed="13.89" length="16.10" shape="401.65,-208.05 401.65,-191.95"/>
    </edge>
    <edge id=":cross20_5" function="internal">
        <lane id=":cross20_5_0" index="0" speed="13.89" length="6.41" shape="401.65,-208.05 401.04,-203.81 399.95,-201.98"/>
    </edge>
    <edge id=":cross20_8" function="internal">
        <lane id=":cross20_8_0" index="0" speed="13.89" length="9.23" shape="399.95,-201.98 399.22,-200.78 396.19,-198.96 391.95,-198.35"/>
    </edge>
    <edge id=":cross20_6" function="internal">
        <lane id=":cross20_6_0" index="0" speed="13.89" length="5.00" shape="391.95,-204.95 393.31,-205.14 394.27,-205.72 394.86,-206.69 395.05,-208.05"/>
    </edge>
    <edge id=":cross20_7" function="internal">
        <lane id=":cross20_7_0" index="0" speed="13.89" length="15.64" shape="391.95,-201.65 396.19,-201.04 399.23,-199.23 401.04,-196.19 401.65,-191.95"/>
    </edge>
    <edge id=":cross21_0" function="internal">
        <lane id=":cross21_0_0" index="0" speed="13.89" length="18.55" shape="-404.95,-393.45 -404.23,-398.48 -402.07,-402.07 -398.48,-404.23 -393.45,-404.95"/>
    </edge>
    <edge id=":cross21_1" function="internal">
        <lane id=":cross21_1_0" index="0" speed="13.89" length="13.22" shape="-401.65,-393.45 -401.14,-397.04 -399.60,-399.60 -397.04,-401.14 -393.45,-401.65"/>
    </edge>
    <edge id=":cross21_2" function="internal">
        <lane id=":cross21_2_0" index="0" speed="13.89" length="2.58" shape="-393.45,-395.05 -394.15,-394.95 -394.65,-394.65 -394.95,-394.15 -395.05,-393.45"/>
    </edge>
    <edge id=":cross21_3" function="internal">