<?xml version="1.0" encoding="UTF-8"?>
<!-- generated on 2019-08-13 14:19:30.127000 by $Id$ via randomTrips.py
  options: -n osm.net.xml <doubleminus>seed 2048 <doubleminus>fringe-factor 60 -p 1 -r KHosm.rou.xml -o KHosm.trips.xml -e 5000 <doubleminus>vehicle-class passenger <doubleminus>vclass passenger <doubleminus>prefix veh <doubleminus>min-distance 300 <doubleminus>trip-attributes departLane="best" <doubleminus>validate
-->
<routes xmlns:xsi="http://www.w3.org/2001/XMLSchema-instance" xsi:noNamespaceSchemaLocation="http://sumo.dlr.de/xsd/routes_file.xsd">
    <vType id="veh_passenger" vClass="passenger">
    </vType>
    <trip id="veh0" depart="0.00" departLane="best" from="-295334787#0" to="108124792" type="veh_passenger"/>
    <trip id="veh1" depart="1.00" departLane="best" from="28423656#0" to="25670356#3" type="veh_passenger"/>
    <trip id="veh2" depart="2.00" departLane="best" from="311063414" to="28422989#29" type="veh_passenger"/>
    <trip id="veh3" depart="3.00" departLane="best" from="-310745673" to="347431833#3" type="veh_passenger"/>
    <trip id="veh4" depart="4.00" departLane="best" from="-107444334#2" to="311096436" type="veh_passenger"/>
    <trip id="veh5" depart="5.00" departLane="best" from="248239093#2" to="-108124774" type="veh_passenger"/>
    <trip id="veh6" depart="6.00" departLane="best" from="-108126640#2" to="262003700" type="veh_passenger"/>
    <trip id="veh7" depart="7.00" departLane="best" from="313254587#0" to="310744449" type="veh_passenger"/>
    <trip id="veh8" depart="8.00" departLane="best" from="431669368#0" to="303596560#0" type="veh_passenger"/>
    <trip id="veh9" depart="9.00" departLane="best" from="239754100#1" to="251009387#0" type="veh_passenger"/>
    <trip id="veh10" depart="10.00" departLane="best" from="28422811#0" to="107444334#2" type="veh_passenger"/>
    <trip id="veh11" depart="11.00" departLane="best" from="107503217#0" to="58527549#6" type="veh_passenger"/>
    <trip id="veh12" depart="12.00" departLane="best" from="83801639#0" to="-239754100#0" type="veh_passenger"/>
    <trip id="veh13" depart="13.00" departLane="best" from="-275625290#14" to="107801713#1" type="veh_passenger"/>
    <trip id="veh14" depart="14.00" departLane="best" from="28423161#13" to="219780635" type="veh_passenger"/>
    <trip id="veh15" depart="15.00" departLane="best" from="-35266083#3" to="-28566846#1" type="veh_passenger"/>
    <trip id="veh16" depart="16.00" departLane="best" from="249002662#8" to="384921012#2" type="veh_passenger"/>
    <trip id="veh17" depart="17.00" departLane="best" from="81160514" to="-214039162#1" type="veh_passenger"/>
    <trip id="veh18" depart="18.00" departLane="best" from="-107801706#1" to="-222772059#0" type="veh_passenger"/>
    <trip id="veh19" depart="19.00" departLane="best" from="-214771320#1" to="-214039172#5" type="veh_passenger"/>
    <trip id="veh20" depart="20.00" departLane="best" from="267234731#5" to="249002662#3" type="veh_passenger"/>
    <trip id="veh21" depart="21.00" departLane="best" from="-275625290#13" to="212293492#1" type="veh_passenger"/>
    <trip id="veh22" depart="22.00" departLane="best" from="214524852#0" to="107503208" type="veh_passenger"/>
    <trip id="veh23" depart="23.00" departLane="best" from="-107801680#1" to="-107444463#5" type="veh_passenger"/>
    <trip id="veh24" depart="24.00" departLane="best" from="-107444358#2" to="111737617#6" type="veh_passenger"/>
    <trip id="veh25" depart="25.00" departLane="best" from="682583142" to="279282973#1" type="veh_passenger"/>
    <trip id="veh26" depart="26.00" departLane="best" from="311222387" to="-23547229" type="veh_passenger"/>
    <trip id="veh27" depart="27.00" departLane="best" from="-28566504#10" to="-413673054#1" type="veh_passenger"/>
    <trip id="veh28" depart="28.00" departLane="best" from="-275625290#15" to="-214028095#0" type="veh_passenger"/>
    <trip id="veh29" depart="29.00" departLane="best" from="214525288#0" to="-214028161#0" type="veh_passenger"/>
    <trip id="veh30" depart="30.00" departLane="best" from="311096418" to="296976210#1" type="veh_passenger"/>
    <trip id="veh31" depart="31.00" departLane="best" from="-23547228#0" to="311096432" type="veh_passenger"/>
    <trip id="veh32" depart="32.00" departLane="best" from="-215082751" to="-275631033#0" type="veh_passenger"/>
    <trip id="veh33" depart="33.00" departLane="best" from="-267412226#3" to="107444478#8" type="veh_passenger"/>
    <trip id="veh34" depart="34.00" departLane="best" from="214524852#0" to="262003698#8" type="veh_passenger"/>
    <trip id="veh35" depart="35.00" departLane="best" from="384921010" to="-46144121#4" type="veh_passenger"/>
    <trip id="veh36" depart="36.00" departLane="best" from="-108124792" to="347690241#9" type="veh_passenger"/>
    <trip id="veh37" depart="37.00" departLane="best" from="-215082751" to="347431830" type="veh_passenger"/>
    <trip id="veh38" depart="38.00" departLane="best" from="-310373426" to="-107444381#11" type="veh_passenger"/>
    <trip id="veh39" depart="39.00" departLane="best" from="-310745673" to="-249901812#0" type="veh_passenger"/>
    <trip id="veh40" depart="40.00" departLane="best" from="28526235#0" to="-214774008#2" type="veh_passenger"/>
    <trip id="veh41" depart="41.00" departLane="best" from="-311222388#5" to="250156445#8" type="veh_passenger"/>
    <trip id="veh42" depart="42.00" departLane="best" from="-215082751" to="275625288#7" type="veh_passenger"/>
    <trip id="veh43" depart="43.00" departLane="best" from="-214524849#1" to="108234968#17" type="veh_passenger"/>
    <trip id="veh44" depart="44.00" departLane="best" from="312712053#0" to="-46144120#0" type="veh_passenger"/>
    <trip id="veh45" depart="45.00" departLane="best" from="240515827#0" to="-214774005" type="veh_passenger"/>
    <trip id="veh46" depart="46.00" departLane="best" from="-215082751" to="-46144117#0" type="veh_passenger"/>
    <trip id="veh47" depart="47.00" departLane="best" from="108124782#3" to="42680533#14" type="veh_passenger"/>
    <trip id="veh48" depart="48.00" departLane="best" from="107503217#0" to="-214771308" type="veh_passenger"/>
    <trip id="veh49" depart="49.00" departLane="best" from="-214773996#0" to="-107503217#0" type="veh_passenger"/>
    <trip id="veh50" depart="50.00" departLane="best" from="-214524889#1" to="-28422989#28" type="veh_passenger"/>
    <trip id="veh51" depart="51.00" departLane="best" from="58527548#3" to="28578614#2" type="veh_passenger"/>
    <trip id="veh52" depart="52.00" departLane="best" from="-214028076#4" to="311215871#1" type="veh_passenger"/>
    <trip id="veh53" depart="53.00" departLane="best" from="222771939" to="-107801661#0" type="veh_passenger"/>
    <trip id="veh54" depart="54.00" departLane="best" from="-23632743#9" to="214524869#3" type="veh_passenger"/>
    <trip id="veh55" depart="55.00" departLane="best" from="-219780636" to="28566504#10" type="veh_passenger"/>
    <trip id="veh56" depart="56.00" departLane="best" from="179222105#4" to="-268609128#0" type="veh_passenger"/>
    <trip id="veh57" depart="57.00" departLane="best" from="28578614#3" to="-214524889#4" type="veh_passenger"/>
    <trip id="veh58" depart="58.00" departLane="best" from="108338154#14" to="107444478#8" type="veh_passenger"/>
    <trip id="veh59" depart="59.00" departLane="best" from="-28592780#8" to="-296977682#0" type="veh_passenger"/>
    <trip id="veh60" depart="60.00" departLane="best" from="28567451#0" to="-108124774" type="veh_passenger"/>
    <trip id="veh61" depart="61.00" departLane="best" from="-310373422" to="-38363415#6" type="veh_passenger"/>
    <trip id="veh62" depart="62.00" departLane="best" from="-311360931#1" to="25670356#3" type="veh_passenger"/>
    <trip id="veh63" depart="63.00" departLane="best" from="267412231#0" to="347431832#9" type="veh_passenger"/>
    <trip id="veh64" depart="64.00" departLane="best" from="297142529#6" to="-42680533#6" type="veh_passenger"/>
    <trip id="veh65" depart="65.00" departLane="best" from="-266765421#1" to="-214028095#2" type="veh_passenger"/>
    <trip id="veh66" depart="66.00" departLane="best" from="110244229" to="214771335#1" type="veh_passenger"/>
    <trip id="veh67" depart="67.00" departLane="best" from="303596565#3" to="295400205#2" type="veh_passenger"/>
    <trip id="veh68" depart="68.00" departLane="best" from="676533410" to="-214771307" type="veh_passenger"/>
    <trip id="veh69" depart="69.00" departLane="best" from="-108234959" to="310373422" type="veh_passenger"/>
    <trip id="veh70" depart="70.00" departLane="best" from="212293494" to="28295926#2" type="veh_passenger"/>
    <trip id="veh71" depart="71.00" departLane="best" from="-219780636" to="-81158985" type="veh_passenger"/>
    <trip id="veh72" depart="72.00" departLane="best" from="311222387" to="-108234968#23" type="veh_passenger"/>
    <trip id="veh73" depart="73.00" departLane="best" from="28590497#0" to="311096432" type="veh_passenger"/>
    <trip id="veh74" depart="74.00" departLane="best" from="81161407#0" to="219780635" type="veh_passenger"/>
    <trip id="veh75" depart="75.00" departLane="best" from="107801701#3" to="214524871#7" type="veh_passenger"/>
    <trip id="veh76" depart="76.00" departLane="best" from="46144123#0" to="-107801661#2" type="veh_passenger"/>
    <trip id="veh77" depart="77.00" departLane="best" from="214524852#0" to="51500290#1" type="veh_passenger"/>
    <trip id="veh78" depart="78.00" departLane="best" from="214774001" to="45923034#6" type="veh_passenger"/>
    <trip id="veh79" depart="79.00" departLane="best" from="-295400205#2" to="-275625286#3" type="veh_passenger"/>
    <trip id="veh80" depart="80.00" departLane="best" from="214771302#2" to="-25825905#1" type="veh_passenger"/>
    <trip id="veh81" depart="81.00" departLane="best" from="-81158984" to="215071909" type="veh_passenger"/>
    <trip id="veh82" depart="82.00" departLane="best" from="108126638#2" to="-249901812#0" type="veh_passenger"/>
    <trip id="veh83" depart="83.00" departLane="best" from="296977682#0" to="-28423652#11" type="veh_passenger"/>
    <trip id="veh84" depart="84.00" departLane="best" from="-311215871#1" to="-275625288#7" type="veh_passenger"/>
    <trip id="veh85" depart="85.00" departLane="best" from="25360190#2" to="267412231#4" type="veh_passenger"/>
    <trip id="veh86" depart="86.00" departLane="best" from="682583142" to="310373425#1" type="veh_passenger"/>
    <trip id="veh87" depart="87.00" departLane="best" from="-214524871#9" to="279282973#2" type="veh_passenger"/>
    <trip id="veh88" depart="88.00" departLane="best" from="-310373432" to="-311378784#1" type="veh_passenger"/>
    <trip id="veh89" depart="89.00" departLane="best" from="-46146060#6" to="295395472#1" type="veh_passenger"/>
    <trip id="veh90" depart="90.00" departLane="best" from="311222362#6" to="295499552" type="veh_passenger"/>
    <trip id="veh91" depart="91.00" departLane="best" from="46144123#0" to="295400196#14" type="veh_passenger"/>
    <trip id="veh92" depart="92.00" departLane="best" from="311378786#0" to="-28578615#22" type="veh_passenger"/>
    <trip id="veh93" depart="93.00" departLane="best" from="-214524871#9" to="108234968#3" type="veh_passenger"/>
    <trip id="veh94" depart="94.00" departLane="best" from="-81158984" to="311096400" type="veh_passenger"/>
    <trip id="veh95" depart="95.00" departLane="best" from="-107444423" to="-215071934#0" type="veh_passenger"/>
    <trip id="veh96" depart="96.00" departLane="best" from="214088033#0" to="-23632745#0" type="veh_passenger"/>
    <trip id="veh97" depart="97.00" departLane="best" from="28590497#0" to="313254586#0" type="veh_passenger"/>
    <trip id="veh98" depart="98.00" departLane="best" from="311063413" to="25670354#1" type="veh_passenger"/>
    <trip id="veh99" depart="99.00" departLane="best" from="28592780#7" to="-108234968#19" type="veh_passenger"/>
    <trip id="veh100" depart="100.00" departLane="best" from="-46144121#0" to="-310367893" type="veh_passenger"/>
    <trip id="veh101" depart="101.00" departLane="best" from="-296977678#4" to="-28423652#1" type="veh_passenger"/>
    <trip id="veh102" depart="102.00" departLane="best" from="214028136" to="-23547229" type="veh_passenger"/>
    <trip id="veh103" depart="103.00" departLane="best" from="-25824807#0" to="107801706#1" type="veh_passenger"/>
    <trip id="veh104" depart="104.00" departLane="best" from="-84273313#1" to="-310373180#0" type="veh_passenger"/>
    <trip id="veh105" depart="105.00" departLane="best" from="296977679#9" to="-214524852#0" type="veh_passenger"/>
    <trip id="veh106" depart="106.00" departLane="best" from="347690241#2" to="-310367892" type="veh_passenger"/>
    <trip id="veh107" depart="107.00" departLane="best" from="-107801749#1" to="-311063413" type="veh_passenger"/>
    <trip id="veh108" depart="108.00" departLane="best" from="296977682#0" to="297142532#13" type="veh_passenger"/>
    <trip id="veh109" depart="109.00" departLane="best" from="214524843" to="-222771968" type="veh_passenger"/>
    <trip id="veh110" depart="110.00" departLane="best" from="28423652#0" to="-214028085" type="veh_passenger"/>
    <trip id="veh111" depart="111.00" departLane="best" from="-219780636" to="267412221#1" type="veh_passenger"/>
    <trip id="veh112" depart="112.00" departLane="best" from="-311096411" to="-28422811#2" type="veh_passenger"/>
    <trip id="veh113" depart="113.00" departLane="best" from="-214039144" to="222772016" type="veh_passenger"/>
    <trip id="veh114" depart="114.00" departLane="best" from="28590497#2" to="107444423" type="veh_passenger"/>
    <trip id="veh115" depart="115.00" departLane="best" from="51500284#3" to="243803573#2" type="veh_passenger"/>
    <trip id="veh116" depart="116.00" departLane="best" from="222772072#1" to="-212293478#5" type="veh_passenger"/>
    <trip id="veh117" depart="117.00" departLane="best" from="214524843" to="214774000#0" type="veh_passenger"/>
    <trip id="veh118" depart="118.00" departLane="best" from="268609128#0" to="-311382129#10" type="veh_passenger"/>
    <trip id="veh119" depart="119.00" departLane="best" from="28423653#23" to="88855940#5" type="veh_passenger"/>
    <trip id="veh120" depart="120.00" departLane="best" from="-108234959" to="-28566503#4" type="veh_passenger"/>
    <trip id="veh121" depart="121.00" departLane="best" from="28578615#7" to="100018526#5" type="veh_passenger"/>
    <trip id="veh122" depart="122.00" departLane="best" from="-244507792#2" to="107503208" type="veh_passenger"/>
    <trip id="veh123" depart="123.00" departLane="best" from="-295400205#2" to="302143579#12" type="veh_passenger"/>
    <trip id="veh124" depart="124.00" departLane="best" from="249327637#0" to="-344667172" type="veh_passenger"/>
    <trip id="veh125" depart="125.00" departLane="best" from="-108234959" to="-28422811#5" type="veh_passenger"/>
    <trip id="veh126" depart="126.00" departLane="best" from="222772032#0" to="107444334#2" type="veh_passenger"/>
    <trip id="veh127" depart="127.00" departLane="best" from="-219780641" to="245074760#0" type="veh_passenger"/>
    <trip id="veh128" depart="128.00" departLane="best" from="28578615#3" to="25669185#0" type="veh_passenger"/>
    <trip id="veh129" depart="129.00" departLane="best" from="43103871#0" to="-214028136" type="veh_passenger"/>
    <trip id="veh130" depart="130.00" departLane="best" from="312712053#0" to="107444340#1" type="veh_passenger"/>
    <trip id="veh131" depart="131.00" departLane="best" from="297144333#17" to="58527544#1" type="veh_passenger"/>
    <trip id="veh132" depart="132.00" departLane="best" from="28592579#0" to="-249154065" type="veh_passenger"/>
    <trip id="veh133" depart="133.00" departLane="best" from="310367892" to="-107801661#0" type="veh_passenger"/>
    <trip id="veh134" depart="134.00" departLane="best" from="297142531#2" to="-108338154#12" type="veh_passenger"/>
    <trip id="veh135" depart="135.00" departLane="best" from="249002671#1" to="297142532#13" type="veh_passenger"/>
    <trip id="veh136" depart="136.00" departLane="best" from="-28423161#0" to="23547230#0" type="veh_passenger"/>
    <trip id="veh137" depart="137.00" departLane="best" from="311222362#12" to="108234959" type="veh_passenger"/>
    <trip id="veh138" depart="138.00" departLane="best" from="-215082751" to="310373425#1" type="veh_passenger"/>
    <trip id="veh139" depart="139.00" departLane="best" from="313254587#7" to="-596079838#2" type="veh_passenger"/>
    <trip id="veh140" depart="140.00" departLane="best" from="297144854#14" to="297142516#1" type="veh_passenger"/>
    <trip id="veh141" depart="141.00" departLane="best" from="25824815#0" to="-249901812#0" type="veh_passenger"/>
    <trip id="veh142" depart="142.00" departLane="best" from="-42680533#5" to="-310745194#1" type="veh_passenger"/>
    <trip id="veh143" depart="143.00" departLane="best" from="108124782#5" to="-46724077#0" type="veh_passenger"/>
    <trip id="veh144" depart="144.00" departLane="best" from="-28592778#7" to="107801713#1" type="veh_passenger"/>
    <trip id="veh145" depart="145.00" departLane="best" from="28566846#0" to="28592778#7" type="veh_passenger"/>
    <trip id="veh146" depart="146.00" departLane="best" from="107444404#1" to="107801749#1" type="veh_passenger"/>
    <trip id="veh147" depart="147.00" departLane="best" from="-28578615#11" to="-215071905#0" type="veh_passenger"/>
    <trip id="veh148" depart="148.00" departLane="best" from="-302143579#10" to="347431832#9" type="veh_passenger"/>
    <trip id="veh149" depart="149.00" departLane="best" from="311222386#0" to="107801749#1" type="veh_passenger"/>
    <trip id="veh150" depart="150.00" departLane="best" from="-267412226#3" to="89265816#10" type="veh_passenger"/>
    <trip id="veh151" depart="151.00" departLane="best" from="-28423653#23" to="214771320#1" type="veh_passenger"/>
    <trip id="veh152" depart="152.00" departLane="best" from="25824186#1" to="111737617#6" type="veh_passenger"/>
    <trip id="veh153" depart="153.00" departLane="best" from="108124769#2" to="214088033#6" type="veh_passenger"/>
    <trip id="veh154" depart="154.00" departLane="best" from="81161407#0" to="-310367893" type="veh_passenger"/>
    <trip id="veh155" depart="155.00" departLane="best" from="275631034#0" to="246576617#1" type="veh_passenger"/>
    <trip id="veh156" depart="156.00" departLane="best" from="243803586#0" to="214524882" type="veh_passenger"/>
    <trip id="veh157" depart="157.00" departLane="best" from="-84273313#1" to="347431831#5" type="veh_passenger"/>
    <trip id="veh158" depart="158.00" departLane="best" from="266765399#0" to="28592778#7" type="veh_passenger"/>
    <trip id="veh159" depart="159.00" departLane="best" from="214524849#0" to="-214532234#0" type="veh_passenger"/>
    <trip id="veh160" depart="160.00" departLane="best" from="275631034#0" to="311063398#1" type="veh_passenger"/>
    <trip id="veh161" depart="161.00" departLane="best" from="25825904#6" to="243803573#2" type="veh_passenger"/>
    <trip id="veh162" depart="162.00" departLane="best" from="-107801749#1" to="-311378788#4" type="veh_passenger"/>
    <trip id="veh163" depart="163.00" departLane="best" from="214771301#0" to="-296976210#4" type="veh_passenger"/>
    <trip id="veh164" depart="164.00" departLane="best" from="214524852#0" to="-310367892" type="veh_passenger"/>
    <trip id="veh165" depart="165.00" departLane="best" from="249154064#6" to="-682583142" type="veh_passenger"/>
    <trip id="veh166" depart="166.00" departLane="best" from="262003696#3" to="88855940#5" type="veh_passenger"/>
    <trip id="veh167" depart="167.00" departLane="best" from="384921010" to="28590782#24" type="veh_passenger"/>
    <trip id="veh168" depart="168.00" departLane="best" from="-28422989#29" to="28422811#29" type="veh_passenger"/>
    <trip id="veh169" depart="169.00" departLane="best" from="214524852#0" to="219780646#3" type="veh_passenger"/>
    <trip id="veh170" depart="170.00" departLane="best" from="43103871#0" to="296977679#8" type="veh_passenger"/>
    <trip id="veh171" depart="171.00" departLane="best" from="222771978" to="-248239090#0" type="veh_passenger"/>
    <trip id="veh172" depart="172.00" departLane="best" from="-310373422" to="-25824807#3" type="veh_passenger"/>
    <trip id="veh173" depart="173.00" departLane="best" from="-107444334#2" to="249002662#0" type="veh_passenger"/>
    <trip id="veh174" depart="174.00" departLane="best" from="243803586#0" to="108234959" type="veh_passenger"/>
    <trip id="veh175" depart="175.00" departLane="best" from="-108234959" to="25670356#3" type="veh_passenger"/>
    <trip id="veh176" depart="176.00" departLane="best" from="-108124792" to="-108124774" type="veh_passenger"/>
    <trip id="veh177" depart="177.00" departLane="best" from="-295400205#2" to="28423161#5" type="veh_passenger"/>
    <trip id="veh178" depart="178.00" departLane="best" from="83790351#0" to="28578615#19" type="veh_passenger"/>
    <trip id="veh179" depart="179.00" departLane="best" from="43103871#0" to="-107801688#0" type="veh_passenger"/>
    <trip id="veh180" depart="180.00" departLane="best" from="214525288#0" to="35266083#3" type="veh_passenger"/>
    <trip id="veh181" depart="181.00" departLane="best" from="310367892" to="-107801688#0" type="veh_passenger"/>
    <trip id="veh182" depart="182.00" departLane="best" from="-107801749#1" to="89265816#10" type="veh_passenger"/>
    <trip id="veh183" depart="183.00" departLane="best" from="212293494" to="-28590782#36" type="veh_passenger"/>
    <trip id="veh184" depart="184.00" departLane="best" from="-222771926" to="-28422811#26" type="veh_passenger"/>
    <trip id="veh185" depart="185.00" departLane="best" from="266765399#0" to="219780635" type="veh_passenger"/>
    <trip id="veh186" depart="186.00" departLane="best" from="215234573#2" to="111737617#6" type="veh_passenger"/>
    <trip id="veh187" depart="187.00" departLane="best" from="266765399#0" to="-23547229" type="veh_passenger"/>
    <trip id="veh188" depart="188.00" departLane="best" from="-108338154#14" to="-214088036#1" type="veh_passenger"/>
    <trip id="veh189" depart="189.00" departLane="best" from="-310373422" to="107503208" type="veh_passenger"/>
    <trip id="veh190" depart="190.00" departLane="best" from="108124774" to="-431669368#0" type="veh_passenger"/>
    <trip id="veh191" depart="191.00" departLane="best" from="214771301#0" to="-214028085" type="veh_passenger"/>
    <trip id="veh192" depart="192.00" departLane="best" from="-107444463#0" to="-310745195" type="veh_passenger"/>
    <trip id="veh193" depart="193.00" departLane="best" from="28423654#1" to="267945783#9" type="veh_passenger"/>
    <trip id="veh194" depart="194.00" departLane="best" from="214771301#0" to="-28423652#1" type="veh_passenger"/>
    <trip id="veh195" depart="195.00" departLane="best" from="311063413" to="-296977682#0" type="veh_passenger"/>
    <trip id="veh196" depart="196.00" departLane="best" from="-295400196#1" to="310744449" type="veh_passenger"/>
    <trip id="veh197" depart="197.00" departLane="best" from="214525288#0" to="296977674" type="veh_passenger"/>
    <trip id="veh198" depart="198.00" departLane="best" from="28420439#0" to="-214773997#2" type="veh_passenger"/>
    <trip id="veh199" depart="199.00" departLane="best" from="268609125#5" to="-46980897#0" type="veh_passenger"/>
    <trip id="veh200" depart="200.00" departLane="best" from="-28422989#29" to="-310367893" type="veh_passenger"/>
    <trip id="veh201" depart="201.00" departLane="best" from="-111737617#6" to="28590503#7" type="veh_passenger"/>
    <trip id="veh202" depart="202.00" departLane="best" from="43103871#0" to="267234731#6" type="veh_passenger"/>
    <trip id="veh203" depart="203.00" departLane="best" from="51500277#3" to="267412221#1" type="veh_passenger"/>
    <trip id="veh204" depart="204.00" departLane="best" from="311063414" to="215082751" type="veh_passenger"/>
    <trip id="veh205" depart="205.00" departLane="best" from="-28423654#16" to="248239102#6" type="veh_passenger"/>
    <trip id="veh206" depart="206.00" departLane="best" from="-295400196#14" to="295400198#1" type="veh_passenger"/>
    <trip id="veh207" depart="207.00" departLane="best" from="295395476#2" to="384921012#2" type="veh_passenger"/>
    <trip id="veh208" depart="208.00" departLane="best" from="214524843" to="28566504#10" type="veh_passenger"/>
    <trip id="veh209" depart="209.00" departLane="best" from="310373180#0" to="-107801736#1" type="veh_passenger"/>
    <trip id="veh210" depart="210.00" departLane="best" from="-344667176#1" to="219780636" type="veh_passenger"/>
    <trip id="veh211" depart="211.00" departLane="best" from="28590497#0" to="-275625283#0" type="veh_passenger"/>
    <trip id="veh212" depart="212.00" departLane="best" from="-107503210" to="46144117#3" type="veh_passenger"/>
    <trip id="veh213" depart="213.00" departLane="best" from="28592579#0" to="-83790356#1" type="veh_passenger"/>
    <trip id="veh214" depart="214.00" departLane="best" from="-311096405#0" to="-212293494" type="veh_passenger"/>
    <trip id="veh215" depart="215.00" departLane="best" from="222772070#3" to="-43103871#0" type="veh_passenger"/>
    <trip id="veh216" depart="216.00" departLane="best" from="214524869#2" to="-23632745#5" type="veh_passenger"/>
    <trip id="veh217" depart="217.00" departLane="best" from="23632745#0" to="-28590497#17" type="veh_passenger"/>
    <trip id="veh218" depart="218.00" departLane="best" from="83790356#0" to="107801662#1" type="veh_passenger"/>
    <trip id="veh219" depart="219.00" departLane="best" from="43103871#0" to="297142516#1" type="veh_passenger"/>
    <trip id="veh220" depart="220.00" departLane="best" from="310367893" to="-240515827#0" type="veh_passenger"/>
    <trip id="veh221" depart="221.00" departLane="best" from="-214771304" to="51500281#14" type="veh_passenger"/>
    <trip id="veh222" depart="222.00" departLane="best" from="-214774008#2" to="-28592579#5" type="veh_passenger"/>
    <trip id="veh223" depart="223.00" departLane="best" from="222772035#0" to="-23547229" type="veh_passenger"/>
    <trip id="veh224" depart="224.00" departLane="best" from="23547226#5" to="28422989#29" type="veh_passenger"/>
    <trip id="veh225" depart="225.00" departLane="best" from="-107444334#2" to="25670356#3" type="veh_passenger"/>
    <trip id="veh226" depart="226.00" departLane="best" from="-311057386" to="-682583142" type="veh_passenger"/>
    <trip id="veh227" depart="227.00" departLane="best" from="311057388" to="107444334#2" type="veh_passenger"/>
    <trip id="veh228" depart="228.00" departLane="best" from="-107444355#8" to="310745673" type="veh_passenger"/>
    <trip id="veh229" depart="229.00" departLane="best" from="214771333#8" to="34949329" type="veh_passenger"/>
    <trip id="veh230" depart="230.00" departLane="best" from="262003704" to="-83790356#1" type="veh_passenger"/>
    <trip id="veh231" depart="231.00" departLane="best" from="310373180#0" to="89265816#10" type="veh_passenger"/>
    <trip id="veh232" depart="232.00" departLane="best" from="266765399#0" to="-28590497#0" type="veh_passenger"/>
    <trip id="veh233" depart="233.00" departLane="best" from="-275625290#8" to="295856771" type="veh_passenger"/>
    <trip id="veh234" depart="234.00" departLane="best" from="243803586#0" to="-28592579#1" type="veh_passenger"/>
    <trip id="veh235" depart="235.00" departLane="best" from="46144117#0" to="311096436" type="veh_passenger"/>
    <trip id="veh236" depart="236.00" departLane="best" from="-89265816#10" to="-107444431#0" type="veh_passenger"/>
    <trip id="veh237" depart="237.00" departLane="best" from="-311215881#1" to="-214771308" type="veh_passenger"/>
    <trip id="veh238" depart="238.00" departLane="best" from="-267412226#3" to="302143585#6" type="veh_passenger"/>
    <trip id="veh239" depart="239.00" departLane="best" from="-108124787#1" to="214524849#1" type="veh_passenger"/>
    <trip id="veh240" depart="240.00" departLane="best" from="-215071909" to="-28423652#1" type="veh_passenger"/>
    <trip id="veh241" depart="241.00" departLane="best" from="222771992#1" to="28566504#10" type="veh_passenger"/>
    <trip id="veh242" depart="242.00" departLane="best" from="311222387" to="384921012#2" type="veh_passenger"/>
    <trip id="veh243" depart="243.00" departLane="best" from="271672288#4" to="28566504#10" type="veh_passenger"/>
    <trip id="veh244" depart="244.00" departLane="best" from="214524871#6" to="-25669188#11" type="veh_passenger"/>
    <trip id="veh245" depart="245.00" departLane="best" from="275631033#0" to="310373425#10" type="veh_passenger"/>
    <trip id="veh246" depart="246.00" departLane="best" from="25823397#6" to="-46980897#0" type="veh_passenger"/>
    <trip id="veh247" depart="247.00" departLane="best" from="81160514" to="-110244229" type="veh_passenger"/>
    <trip id="veh248" depart="248.00" departLane="best" from="676533410" to="-51500290#5" type="veh_passenger"/>
    <trip id="veh249" depart="249.00" departLane="best" from="81161407#0" to="-28590497#0" type="veh_passenger"/>
    <trip id="veh250" depart="250.00" departLane="best" from="-113711979#4" to="268609129#2" type="veh_passenger"/>
    <trip id="veh251" depart="251.00" departLane="best" from="-214524849#1" to="215082737#2" type="veh_passenger"/>
    <trip id="veh252" depart="252.00" departLane="best" from="-51500290#10" to="28422989#29" type="veh_passenger"/>
    <trip id="veh253" depart="253.00" departLane="best" from="-311096408" to="296977683#5" type="veh_passenger"/>
    <trip id="veh254" depart="254.00" departLane="best" from="-28422811#6" to="-214039150#1" type="veh_passenger"/>
    <trip id="veh255" depart="255.00" departLane="best" from="-89265816#10" to="311096436" type="veh_passenger"/>
    <trip id="veh256" depart="256.00" departLane="best" from="-222771920" to="28566504#10" type="veh_passenger"/>
    <trip id="veh257" depart="257.00" departLane="best" from="214028085" to="-28590497#4" type="veh_passenger"/>