<?xml version="1.0" encoding="UTF-8"?>

<!-- generated on 08/13/19 14:19:23 by Eclipse SUMO duarouter Version 1.0.0
<configuration xmlns:xsi="http://www.w3.org/2001/XMLSchema-instance" xsi:noNamespaceSchemaLocation="http://sumo.dlr.de/xsd/duarouterConfiguration.xsd">

    <input>
        <net-file value="osm.net.xml"/>
        <route-files value="KHosm.trips.xml"/>
    </input>

    <output>
        <output-file value="KHosm.rou.xml"/>
        <alternatives-output value="KHosm.rou.alt.xml"/>
    </output>

    <time>
        <begin value="0"/>
        <end value="5000.0"/>
    </time>

    <report>
        <no-warnings value="true"/>
        <ignore-errors value="true"/>
        <no-step-log value="true"/>
    </report>

</configuration>
-->

<routes xmlns:xsi="http://www.w3.org/2001/XMLSchema-instance" xsi:noNamespaceSchemaLocation="http://sumo.dlr.de/xsd/routes_file.xsd">
    <vType id="veh_passenger" vClass="passenger"/>
    <vehicle id="veh0" type="veh_passenger" depart="0.00" departLane="best">
        <route edges="-295334787#0 275631034#2 275631034#3 275631034#4 275631034#5 275631034#6 275631034#7 275631034#8 108124794#0 108124794#1 108124794#2 108124794#3 108124794#4 108124794#5 108124794#6 108124794#7 108124794#8 266765421#0 46146058#2 108124792"/>
    </vehicle>
    <vehicle id="veh1" type="veh_passenger" depart="1.00" departLane="best">
        <route edges="28423656#0 -28423656#0 347690241#7 347690241#8 -28425175#3 -28425175#2 -28425175#1 184601297#7 184601297#8 184601297#9 184601297#10 51500287#0 296977679#6 296977679#7 296977679#8 296977679#9 -405985980#0 311096404#0 311096404#1 311096404#2 25670356#0 25670356#1 25670356#2 25670356#3"/>
    </vehicle>
    <vehicle id="veh2" type="veh_passenger" depart="2.00" departLane="best">
        <route edges="311063414 214771329#1 214771329#2 214771329#4 249154075#4 293501347#0 293501347#1 249327639 249154072#0 249154072#1 249154072#2 249154072#3 249154072#4 267234706#1 166456857#0 166456857#1 166456857#2 166456857#3 28425175#1 28425175#2 28425175#3 28425175#4 28425175#5 28425175#6 28425175#7 28425175#8 248239084 -248239086 -248239090#2 -248239090#0 405963351 296976210#0 296976210#1 296976210#2 296976210#3 296976210#4 296976210#5 296976210#6 250156429 248676835 88855940#0 88855940#1 88855940#2 88855940#3 88855940#4 28422989#27 28422989#28 28422989#29"/>
    </vehicle>
    <vehicle id="veh3" type="veh_passenger" depart="3.00" departLane="best">
        <route edges="-310745673 108126656#1 108126656#2 -108126635#0 -28578614#3 -28578614#2 -28578614#1 297144854#13 297144854#14 297144854#15 347431833#0 347431833#1 347431833#2 347431833#3"/>
    </vehicle>
    <vehicle id="veh4" type="veh_passenger" depart="4.00" departLane="best">
        <route edges="-107444334#2 107444404#3 311081641#1 311081641#2 262003696#0 262003696#1 262003696#2 262003696#3 262003696#4 262003696#5 262003696#6 297142531#0 297142531#1 297142531#2 248239102#0 248239102#1 248239102#2 248239102#4 248239102#5 248239102#6 266765344#0 266765344#1 -611564900#2 -611564900#1 -611564900#0 51500291#0 51500291#1 311096436"/>
    </vehicle>
    <vehicle id="veh5" type="veh_passenger" depart="5.00" departLane="best">
        <route edges="248239093#2 -248239093#2 -248239093#0 -25825910#2 -25825910#1 -25825910#0 -268609133#8 -268609133#6 -268609133#5 -268609133#4 -268609133#2 -268609133#1 -268609133#0 248239102#0 248239102#1 248239102#2 248239102#4 248239102#5 248239102#6 -266765421#7 -266765421#4 -266765421#3 40432495#12 -108124774"/>
    </vehicle>
    <vehicle id="veh6" type="veh_passenger" depart="6.00" departLane="best">
        <route edges="-108126640#2 108234968#2 108234968#3 -347690241#3 -347690241#2 -347690241#1 296976208#2 296976208#3 296976208#4 296976208#5 296976208#6 248239112#0 248239112#1 262003700"/>
    </vehicle>
    <vehicle id="veh7" type="veh_passenger" depart="7.00" departLane="best">
        <route edges="313254587#0 313254587#1 313254587#2 313254587#3 313254587#4 313254587#5 313254587#6 313254587#7 313254587#8 259051228#0 259051228#2 -275625290#18 -275625290#17 -275625290#16 -275625290#15 -275625290#14 -275625290#13 -275625290#12 -275625290#11 -275625290#10 405985983#1 405985983#2 405985983#3 280474978#0 280474978#1 280474978#2 42680533#1 42680533#2 214028133 310744449"/>
    </vehicle>
    <vehicle id="veh8" type="veh_passenger" depart="8.00" departLane="best">
        <route edges="431669368#0 -262003689#1 -262003689#0 -295334787#1 -295334787#0 -262003690#3 -262003690#2 -262003690#1 -262003690#0 -266765328#6 -266765328#5 -266765328#4 -266765328#3 -266765328#2 -266765328#1 -266765328#0 -25824807#10 -25824807#9 51500277#3 51500277#4 51500277#5 51500277#6 46980897#0 46980897#1 46980897#2 46980897#3 46980897#4 46980897#5 46980897#6 46980897#7 46980897#8 46980897#9 46980897#10 46980897#11 250156429 339872608#0 339872608#1 339872608#2 339872608#4 339872608#6 262003704 405963352 249002663 46414607 303596564#0 303596564#1 303596564#2 303596564#3 303596560#0"/>
    </vehicle>
    <vehicle id="veh9" type="veh_passenger" depart="9.00" departLane="best">
        <route edges="239754100#1 108338154#13 108338154#14 108338154#15 108338153#1 108338153#2 -46144123#3 -46144123#2 214529129#0 -81161407#3 -81161407#2 310373180#1 25823397#14 25823397#15 -405990662#2 -405990662#1 -405990662#0 251009387#0"/>
    </vehicle>
    <vehicle id="veh10" type="veh_passenger" depart="10.00" departLane="best">
        <route edges="28422811#0 -108338154#11 -108338154#10 -108338154#9 249901812#1 249901812#2 249901812#3 249901812#5 249901812#6 249901812#7 249901812#8 249901812#9 249901812#10 45923027#9 45923027#10 296977679#0 296977679#2 296977679#3 296977679#4 51500288#2 267234707#0 267234707#1 267234707#2 267234707#3 267234707#4 311096398#1 311096398#2 311096398#3 311096398#5 311096398#6 268609130#0 268609130#1 268609130#2 268609130#3 268609130#4 266765337 248239107#0 248239107#1 248239107#2 248239107#3 248239107#4 248239107#5 46883638#0 46883638#1 297142529#0 297142529#1 297142529#2 297142529#3 297142529#4 297142529#5 297142529#6 262003697#0 262003697#1 262003697#2 -107444404#3 107444334#2"/>
    </vehicle>
    <vehicle id="veh11" type="veh_passenger" depart="11.00" departLane="best">
        <route edges="107503217#0 107503217#1 271671503#10 271671503#11 245074760#0 245074760#1 245074760#2 245074760#3 279282975#1 289218965 108126646#0 108126646#1 108126646#2 108126646#3 249327639 249154072#0 249154072#1 249154072#2 249154072#3 249154072#4 267234706#1 166456857#0 166456857#1 166456857#2 166456857#3 166456857#4 166456857#5 166456857#6 166456857#7 166456857#8 166456857#9 239754092#0 239754092#1 239754092#2 46146059#3 46146059#4 26978282#1 26978282#2 26978282#3 26978282#4 26978282#5 347431832#5 347431832#6 58527549#6"/>
    </vehicle>
    <vehicle id="veh12" type="veh_passenger" depart="12.00" departLane="best">
        <route edges="83801639#0 83801639#2 83801639#3 108338154#5 108338154#6 108338154#8 108338154#9 108338154#10 108338154#11 108338154#12 -239754100#1 -239754100#0"/>
    </vehicle>
    <vehicle id="veh13" type="veh_passenger" depart="13.00" departLane="best">
        <route edges="-275625290#14 -275625290#13 -275625290#12 -275625290#11 -275625290#10 405985983#1 405985983#2 297142538#4 297142538#5 108126638#1 108126638#2 108126638#3 108126638#4 108126638#5 108126638#6 108126638#7 108126638#8 -405963352 -262003704 -339872608#6 -339872608#4 -339872608#2 -339872608#1 -339872608#0 -250156429 -296976210#6 -296976210#5 -296976210#4 -296976210#3 -296976210#2 -296976210#1 -296976210#0 -405963351 -25825910#2 -25825910#1 -25825910#0 -268609133#8 -268609133#6 -268609133#5 -268609133#4 -268609133#2 -268609133#1 -268609133#0 -310009681#4 -310009681#3 -310009681#2 -310009681#1 -310009681#0 -262003703#3 -262003703#2 -262003703#1 -108124769#17 -108124769#16 -108124769#15 -108124769#14 -108124769#13 107801713#0 107801713#1"/>
    </vehicle>
    <vehicle id="veh14" type="veh_passenger" depart="14.00" departLane="best">
        <route edges="28423161#13 -28423161#13 -28423161#12 -28423161#11 -28423161#10 -28423161#9 -28423161#8 -28423161#7 -34049276#5 -25823397#7 -25823397#6 -25823397#4 -25823397#3 -25823397#2 -25823397#1 -214524850#1 -214524850#0 682822519#1 682822519#2 682822519#3 682822519#4 28553150#11 28553150#12 45923027#0 45923027#1 45923027#2 45923027#3 45923027#4 45923027#5 45923027#6 45923027#7 45923027#8 45923027#9 45923027#10 296977679#0 296977679#2 296977679#3 296977679#4 51500288#2 267234707#0 267234707#1 267234707#2 267234707#3 267234707#4 311096398#1 311096398#2 311096398#3 311096398#5 311096398#6 268609130#0 268609130#1 268609130#2 268609130#3 268609130#4 266765337 248239107#0 248239107#1 248239107#2 248239107#3 248239107#4 -311215868#1 -311215868#0 -311215884#2 219780635"/>
    </vehicle>
    <vehicle id="veh15" type="veh_passenger" depart="15.00" departLane="best">
        <route edges="-35266083#3 -28566504#7 -28566504#6 -214524871#6 -214524871#5 -214524871#3 -214524871#2 -214524871#1 -214524871#0 -214524869#3 -214524869#2 -214524869#1 -108338153#2 -108338153#1 -108338154#15 -108338154#14 -108338154#13 -108338154#12 -108338154#11 -108338154#10 -108338154#9 -108338154#8 -108338154#6 -28566846#1"/>
    </vehicle>
    <vehicle id="veh16" type="veh_passenger" depart="16.00" departLane="best">
        <route edges="249002662#8 108126638#0 108126638#1 108126638#2 108126638#3 108126638#4 108126638#5 108126638#6 108126638#7 108126638#8 249002663 46414607 384921011 384921012#0 384921012#1 384921012#2"/>
    </vehicle>
    <vehicle id="veh17" type="veh_passenger" depart="17.00" departLane="best">
        <route edges="81160514 251009387#0 251009387#1 251009387#2 251009387#3 251009387#4 58527533#0 58527533#1 58527533#2 58527533#3 58527533#4 58527533#5 58527533#6 58527533#7 58527533#8 58527533#9 58527533#10 108126638#0 108126638#1 108126638#2 108126638#3 108126638#4 108126638#5 108126638#6 250156431#8 250156431#9 250156431#10 250156431#11 250156431#12 100018526#0 100018526#1 100018526#2 100018526#3 100018526#4 100018526#5 100018526#6 302143585#4 -214039162#1"/>
    </vehicle>
    <vehicle id="veh18" type="veh_passenger" depart="18.00" departLane="best">
        <route edges="-107801706#1 107801727#0 311378802 -107801701#21 -107801701#20 -107801701#19 -107801701#17 -107801701#16 -107801701#14 -107801701#13 -107801701#12 -107801701#11 -107801701#10 -107801701#8 -107801701#7 -107801701#5 25669185#1 267238471#4 267238471#5 267238471#6 -267412225#6 -267412225#5 -267412225#4 -267412225#3 -267412225#2 -267412225#1 -267412225#0 -267945802#3 -267945802#1 -267945802#0 267945783#0 267945783#1 267945783#2 267945783#3 267945783#4 -279282977#3 -222772059#0"/>
    </vehicle>
    <vehicle id="veh19" type="veh_passenger" depart="19.00" departLane="best">
        <route edges="-214771320#1 -108338154#14 -108338154#13 -108338154#12 -108338154#11 -108338154#10 -108338154#9 249901812#1 249901812#2 249901812#3 249901812#5 249901812#6 249901812#7 249901812#8 249901812#9 249901812#10 45923027#9 45923027#10 296977679#0 296977679#2 296977679#3 297144333#1 297144333#2 297144333#3 297144333#4 297144333#5 297144333#6 297144333#8 297144333#9 297144333#10 297144333#12 297144333#14 297144333#15 297144333#16 248239132#7 248239132#8 248239126#0 248239126#1 -214039172#7 -214039172#6 -214039172#5"/>
    </vehicle>
    <vehicle id="veh20" type="veh_passenger" depart="20.00" departLane="best">
        <route edges="267234731#5 58527544#5 347431832#4 347431832#5 58527533#5 58527533#6 58527533#7 58527533#8 58527533#9 58527533#10 108126638#0 108126638#1 108126638#2 108126638#3 108126638#4 108126638#5 275625286#2 249002662#3"/>
    </vehicle>
    <vehicle id="veh21" type="veh_passenger" depart="21.00" departLane="best">
        <route edges="-275625290#13 -275625290#12 -275625290#11 -275625290#10 405985983#1 405985983#2 405985983#3 280474978#0 280474978#1 280474978#2 280474978#3 184601297#0 184601297#1 184601297#2 184601297#3 184601297#4 184601297#5 184601297#6 184601297#7 184601297#8 184601297#9 184601297#10 267234707#0 267234707#1 267234707#2 267234707#3 267234707#4 267234707#6 267234707#7 267234707#8 -293501347#1 -293501347#0 -275631033#6 -275631033#5 -275631033#4 -23632745#5 -23632745#4 -23632745#2 83790366#3 212293492#0 212293492#1"/>
    </vehicle>
    <vehicle id="veh22" type="veh_passenger" depart="22.00" departLane="best">
        <route edges="214524852#0 -304225471#1 -310745666 310745665#2 184601297#8 184601297#9 184601297#10 267234707#0 267234707#1 267234707#2 267234707#3 267234707#4 267234707#6 267234707#7 267234707#8 405985985#0 405985985#1 405985985#2 405985985#3 249154076#0 249154076#1 -245074760#3 -245074760#2 -245074760#1 -245074760#0 -271671503#11 107503208"/>
    </vehicle>
    <vehicle id="veh23" type="veh_passenger" depart="23.00" departLane="best">
        <route edges="-107801680#1 -107801675#3 -107801675#2 -107801743 -107444483#13 -107444483#11 -107444483#9 -107444483#8 -107444483#7 -107444483#6 -107444483#5 -107444483#4 -107444483#3 -107444483#2 -107444483#1 262003696#2 262003696#3 262003696#4 -107444401#1 -107444463#5"/>
    </vehicle>
    <vehicle id="veh24" type="veh_passenger" depart="24.00" departLane="best">
        <route edges="-107444358#2 -107444358#1 -107444358#0 -268609133#2 -268609133#1 -268609133#0 -310009681#4 -310009681#3 -310009681#2 -310009681#1 -310009681#0 108124794#0 108124794#1 108124794#2 108124794#3 108124794#4 108124794#5 108124794#6 108124794#7 108124794#8 266765356#0 266765356#1 266765356#2 245074761#0 245074761#1 245074761#2 245074761#3 -293501347#1 -293501347#0 279282971#0 111737617#6"/>
    </vehicle>
    <vehicle id="veh25" type="veh_passenger" depart="25.00" departLane="best">
        <route edges="682583142 -28590497#21 267412223#6 231239381#0 231239381#1 231239381#2 231239381#3 296977676 296977677#0 296977677#1 296977677#2 296977677#3 296977677#4 296977677#5 279282973#0 279282973#1"/>
    </vehicle>
    <vehicle id="veh26" type="veh_passenger" depart="26.00" departLane="best">
        <route edges="311222387 -311222388#0 297145287#2 275631034#8 310009681#0 310009681#1 310009681#2 310009681#3 310009681#4 268609133#0 268609133#1 268609133#2 268609133#4 268609133#5 268609133#6 268609133#8 25825910#0 25825910#1 25825910#2 405963351 296976210#0 296976210#1 296976210#2 296976210#3 -28578615#26 -23547229"/>
    </vehicle>
    <vehicle id="veh27" type="veh_passenger" depart="27.00" departLane="best">
        <route edges="-28566504#10 240515827#1 405990662#0 405990662#1 405990662#2 -25823397#15 -25823397#14 -25823397#13 -25823397#12 -25823397#11 -25823397#10 -25823397#9 -25823397#8 -25823397#7 -25823397#6 -25823397#4 -25823397#3 -25823397#2 -25823397#1 -214524850#1 -214524850#0 682822519#1 682822519#2 682822519#3 682822519#4 28553150#11 28553150#12 45923027#0 45923027#1 45923027#2 45923027#3 45923027#4 45923027#5 45923027#6 45923027#7 45923027#8 45923027#9 45923027#10 296977679#0 296977679#2 296977679#3 296977679#4 51500288#2 267234707#0 267234707#1 267234707#2 267234707#3 267234707#4 267234707#6 267234707#7 267234707#8 405985985#0 179222105#1 179222105#2 -179222017#4 -413673054#1"/>
    </vehicle>
    <vehicle id="veh28" type="veh_passenger" depart="28.00" departLane="best">
        <route edges="-275625290#15 -275625290#14 -275625290#13 -275625290#12 -275625290#11 -275625290#10 405985983#1 405985983#2 297142538#4 297142538#5 108126638#1 108126638#2 108126638#3 108126638#4 108126638#5 108126638#6 108126638#7 23547226#7 23547226#8 262003705#0 262003705#1 262003705#2 -214028095#0"/>
    </vehicle>
    <vehicle id="veh29" type="veh_passenger" depart="29.00" departLane="best">
        <route edges="214525288#0 214525288#1 45923027#1 28578614#3 28578614#4 28578614#5 28578614#6 28578614#7 28578614#8 28578614#9 166456857#8 166456857#9 239754092#0 239754092#1 239754092#2 239754092#3 108126638#0 108126638#1 108126638#2 108126638#3 108126638#4 108126638#5 108126638#6 108126638#7 108126638#8 249002663 46414607 384921011 384921012#0 384921012#1 -214028161#3 -214028161#2 -214028161#1 -214028161#0"/>
    </vehicle>
    <vehicle id="veh30" type="veh_passenger" depart="30.00" departLane="best">
        <route edges="311096418 25182149#2 214771335#0 214771335#1 214771335#2 214771335#3 214771335#4 214771335#6 214771335#7 214771335#8 -347690241#13 -347690241#11 -347690241#10 -347690241#9 28425175#4 28425175#5 28425175#6 28425175#7 28425175#8 248239084 -248239086 -248239090#2 -248239090#0 405963351 296976210#0 296976210#1"/>
    </vehicle>
    <vehicle id="veh31" type="veh_passenger" depart="31.00" departLane="best">
        <route edges="-23547228#0 -302143579#9 -302143579#8 25825904#9 25825904#10 248239090#1 248239132#0 248239132#1 248239132#3 248239132#4 248239132#5 248239132#7 248239132#8 248239126#0 51500284#10 51500284#11 51500284#12 51500284#13 302141465#6 51500291#0 -215071905#1 311096432"/>
    </vehicle>
    <vehicle id="veh32" type="veh_passenger" depart="32.00" departLane="best">
        <route edges="-215082751 28566504#3 28566504#4 28566504#5 -214524871#6 -214524871#5 -214524871#3 -214524871#2 -214524871#1 -214524871#0 -214524869#3 -214524869#2 -214524869#1 -108338153#2 -108338153#1 -108338154#15 -108338154#14 -108338154#13 -108338154#12 -108338154#11 -108338154#10 -108338154#9 -108338154#8 -108338154#6 -108338154#5 -108338154#4 -108338154#3 -108338154#2 -108338154#1 -108338154#0 25670366#4 25670366#5 297142516#0 240508970 311063407 -275631033#0"/>
    </vehicle>
    <vehicle id="veh33" type="veh_passenger" depart="33.00" departLane="best">
        <route edges="-267412226#3 -267412226#2 -267412226#1 -267412226#0 -267238472#14 -267238472#13 -267238472#12 -267238472#11 -267238472#10 -267238472#9 -267238472#8 -267238472#7 -267238472#6 -267238472#5 -267238472#4 -46980897#7 -46980897#6 -46980897#5 -248239093#10 -248239093#9 -248239093#8 -248239093#7 -248239093#6 25824807#4 25824807#5 25824807#6 25824807#7 25824807#8 51500277#3 51500277#4 -107444340#7 -107444340#6 -107444340#5 -107444340#4 107444478#4 107444478#5 107444478#6 107444478#7 107444478#8"/>
    </vehicle>
    <vehicle id="veh34" type="veh_passenger" depart="34.00" departLane="best">
        <route edges="214524852#0 214524852#1 249901812#12 28425175#1 28425175#2 28425175#3 -347690241#8 -347690241#7 -347690241#6 -347690241#5 -347690241#4 -347690241#3 -347690241#2 -347690241#1 28426234#0 28426234#1 38363415#5 310745197 262003698#8"/>
    </vehicle>
    <vehicle id="veh35" type="veh_passenger" depart="35.00" departLane="best">
        <route edges="384921010 303596560#0 303596560#2 -275625283#1 -275625283#0 -249002671#6 -249002671#5 -249002671#4 -249002671#3 -249002671#2 -249002671#1 -249002671#0 -405963352 249002662#0 249002662#1 249002662#2 249002662#3 249002662#4 249002662#5 249002662#6 249002662#7 249002662#8 26978282#0 26978282#1 26978282#2 26978282#3 28553150#7 58527544#4 58527544#5 58527544#6 58527544#7 58527544#8 58527544#9 28592582#1 28592582#2 46144121#4 -46144121#4"/>
    </vehicle>
    <vehicle id="veh36" type="veh_passenger" depart="36.00" departLane="best">
        <route edges="-108124792 -46146058#2 266765421#1 266765421#2 266765421#3 266765421#4 266765421#6 25825902 266765424#0 266765424#1 266765424#2 266765424#3 266765424#5 248239130#0 248239130#1 248239130#2 248239130#3 248239130#4 248239130#5 248239130#6 248239130#8 248239130#9 -28425175#9 -28425175#7 -28425175#6 -28425175#5 -28425175#4 347690241#9"/>
    </vehicle>
    <vehicle id="veh37" type="veh_passenger" depart="37.00" departLane="best">
        <route edges="-215082751 -28566504#2 -28566504#0 -28566503#22 -28566503#20 -28566503#19 -28566503#18 28592579#5 28592579#6 28592579#7 28592579#8 28592582#0 28592582#1 28592582#2 -46144121#3 -46144121#2 -46144121#1 267234731#7 267234731#8 267234731#9 267234731#10 296977676 296977677#0 296977680#8 347431830"/>
    </vehicle>
    <vehicle id="veh38" type="veh_passenger" depart="38.00" departLane="best">
        <route edges="-310373426 28422811#15 28422811#16 28422811#17 28422811#18 28422811#19 45923027#6 45923027#7 45923027#8 249901812#11 249901812#12 28425175#1 28425175#2 28425175#3 28425175#4 28425175#5 247981130#11 302141465#0 -107444381#11"/>
    </vehicle>
    <vehicle id="veh39" type="veh_passenger" depart="39.00" departLane="best">
        <route edges="-310745673 -108126656#0 45923027#3 45923027#4 45923027#5 45923027#6 45923027#7 45923027#8 -249901812#10 -249901812#9 -249901812#8 -249901812#7 -249901812#6 -249901812#5 -249901812#3 -249901812#2 -249901812#1 -249901812#0"/>
    </vehicle>
    <vehicle id="veh40" type="veh_passenger" depart="40.00" departLane="best">
        <route edges="28526235#0 28526235#1 268609125#2 268609125#3 268609125#5 268609125#6 268609125#7 268609125#8 405985983#0 405985983#1 405985983#2 405985983#3 280474978#0 280474978#1 280474978#2 280474978#3 184601297#0 184601297#1 184601297#2 184601297#3 184601297#4 184601297#5 184601297#6 184601297#7 184601297#8 184601297#9 184601297#10 51500287#0 296977679#6 296977679#7 296977679#8 -28590782#7 -28590782#5 -214774008#2"/>
    </vehicle>
    <vehicle id="veh41" type="veh_passenger" depart="41.00" departLane="best">
        <route edges="-311222388#5 -107444339 107444329#0 107444329#1 107444343#0 -107444357#4 -107444357#3 -107444357#2 -107444357#1 262003696#6 297142531#0 297142531#1 297142531#2 268609133#0 268609133#1 268609133#2 268609133#4 268609133#5 268609133#6 268609133#8 25825910#0 25825910#1 25825910#2 405963351 296976210#0 296976210#1 296976210#2 296976210#3 296976210#4 296976210#5 296976210#6 250156429 339872608#0 339872608#1 339872608#2 339872608#4 339872608#6 262003704 405963352 249002671#0 249002671#1 249002671#2 249002671#3 249002671#4 249002671#5 249002671#6 275625283#0 275625283#1 239754089#0 239754089#1 -205165611#0 -250156445#8 250156445#8"/>
    </vehicle>
    <vehicle id="veh42" type="veh_passenger" depart="42.00" departLane="best">
        <route edges="-215082751 -28566504#2 -28566504#0 -28566503#22 -28566503#20 -28566503#19 -28566503#18 -28566503#17 -28566503#16 -28566503#15 -28566503#14 -28566503#13 -28566503#12 -28566503#11 -28566503#10 -28566503#9 -28566503#8 -28566503#7 -28566503#6 -28566503#5 -28566503#4 -28566503#3 -28566503#2 -28566503#1 -28566503#0 405985983#2 297142538#4 297142538#5 108126638#1 108126638#2 108126638#3 108126638#4 25825903#5 25825903#6 25825903#7 -275625287#0 -275625288#8 -275625288#7 275625288#7"/>
    </vehicle>
    <vehicle id="veh43" type="veh_passenger" depart="43.00" departLane="best">
        <route edges="-214524849#1 -304225471#2 214524852#1 249901812#12 28425175#1 28425175#2 28425175#3 28425175#4 28425175#5 28425175#6 28425175#7 28425175#8 248239134#0 248239134#1 248239134#2 108234968#14 108234968#15 108234968#16 108234968#17"/>
    </vehicle>
    <vehicle id="veh44" type="veh_passenger" depart="44.00" departLane="best">
        <route edges="312712053#0 312712053#1 312712053#2 312712053#3 312712053#4 28567624#1 28567624#2 303946223#0 303946223#1 303596562 46414608 249002662#0 249002662#1 249002662#2 249002662#3 25825903#4 25825903#5 25825903#6 25825903#7 275625287#1 275625287#2 -46144120#2 -46144120#1 -46144120#0"/>
    </vehicle>
    <vehicle id="veh45" type="veh_passenger" depart="45.00" departLane="best">
        <route edges="240515827#0 240515827#1 405990662#0 405990662#1 405990662#2 -25823397#15 -25823397#14 -25823397#13 -25823397#12 -25823397#11 -25823397#10 -25823397#9 -25823397#8 -25823397#7 -25823397#6 -25823397#4 -25823397#3 -25823397#2 -25823397#1 -214524850#1 -214524850#0 682822519#1 682822519#2 682822519#3 682822519#4 28553150#11 28553150#12 45923027#0 45923027#1 45923027#2 45923027#3 45923027#4 45923027#5 45923027#6 45923027#7 45923027#8 45923027#9 45923027#10 296977679#0 296977679#2 296977679#3 296977679#4 296977679#5 296977679#6 296977679#7 51500290#0 -214774005"/>
    </vehicle>
    <vehicle id="veh46" type="veh_passenger" depart="46.00" departLane="best">
        <route edges="-215082751 -28566504#2 -28566504#0 -28566503#22 -28566503#20 -28566503#19 -28566503#18 -28566503#17 -28566503#16 -28566503#15 -28566503#14 -28566503#13 -28566503#12 -28566503#11 -28566503#10 -28566503#9 -28566503#8 -28566503#7 -28566503#6 -28566503#5 -28566503#4 -28566503#3 -28566503#2 -28566503#1 -28566503#0 249154071#1 249154071#2 249154071#3 -268609125#8 -268609125#7 -46144117#3 -46144117#1 -46144117#0"/>
    </vehicle>
    <vehicle id="veh47" type="veh_passenger" depart="47.00" departLane="best">
        <route edges="108124782#3 108124782#5 46146058#0 46146058#1 266765421#1 266765421#2 266765421#3 266765421#4 266765421#6 25825902 266765424#0 266765424#1 266765424#2 266765424#3 266765424#5 248239130#0 248239130#1 248239130#2 248239130#3 248239130#4 248239130#5 248239130#6 248239130#8 248239130#9 248239134#0 248239134#1 248239134#2 248239134#3 248239134#4 248239134#5 248239134#6 248239134#7 25825903#0 42680533#12 42680533#13 42680533#14"/>
    </vehicle>
    <vehicle id="veh48" type="veh_passenger" depart="48.00" departLane="best">
        <route edges="107503217#0 107503217#1 271671503#10 271671503#11 245074760#0 245074760#1 245074760#2 245074760#3 279282975#1 279282975#2 -271671506#5 -311063402#1 -214771308"/>
    </vehicle>
    <vehicle id="veh49" type="veh_passenger" depart="49.00" departLane="best">
        <route edges="-214773996#0 214774000#1 214774000#2 -89265816#0 23976987#0 23976987#1 23976987#2 23976987#3 267234707#8 405985985#0 405985985#1 405985985#2 405985985#3 249154076#0 249154076#1 -245074760#3 -245074760#2 -245074760#1 -245074760#0 -271671503#11 -271671503#10 -107503217#1 -107503217#0"/>
    </vehicle>
    <vehicle id="veh50" type="veh_passenger" depart="50.00" departLane="best">
        <route edges="-214524889#1 45915811#6 249901812#5 249901812#6 249901812#7 249901812#8 249901812#9 249901812#10 249901812#11 249901812#12 28425175#1 28425175#2 28425175#3 28425175#4 28425175#5 28425175#6 28425175#7 28425175#8 248239084 -248239086 -248239090#2 -248239090#0 405963351 296976210#0 296976210#1 296976210#2 296976210#3 296976210#4 296976210#5 296976210#6 250156429 248676835 88855940#0 88855940#1 88855940#2 88855940#3 88855940#4 28422989#27 28422989#28 -28422989#28"/>
    </vehicle>
    <vehicle id="veh51" type="veh_passenger" depart="51.00" departLane="best">
        <route edges="58527548#3 405990662#0 405990662#1 405990662#2 -25823397#15 -25823397#14 -25823397#13 -25823397#12 -25823397#11 -25823397#10 -25823397#9 -25823397#8 -25823397#7 -25823397#6 -25823397#4 -25823397#3 -25823397#2 -25823397#1 -214524850#1 -214524850#0 682822519#1 682822519#2 682822519#3 682822519#4 28553150#11 28553150#12 45923027#0 45923027#1 -28578614#2 28578614#2"/>
    </vehicle>
    <vehicle id="veh52" type="veh_passenger" depart="52.00" departLane="best">
        <route edges="-214028076#4 347690245#2 302144180#0 247981130#7 247981130#8 247981130#9 247981130#10 28425175#6 28425175#7 28425175#8 248239084 -248239086 248239132#0 248239132#1 248239132#3 248239132#4 248239132#5 248239132#7 248239132#8 248239126#0 248239126#1 248239126#2 248239126#3 248239107#2 248239107#3 248239107#4 248239107#5 -310009681#4 -310009681#3 -310009681#2 -310009681#1 -310009681#0 -262003703#3 -262003703#2 -262003703#1 -25825905#1 107801734 295394227#1 311215871#0 311215871#1"/>
    </vehicle>
    <vehicle id="veh53" type="veh_passenger" depart="53.00" departLane="best">
        <route edges="222771939 222772035#2 -267945783#7 -267945783#6 -267945783#5 -267945783#4 -267945783#3 -267945783#2 -267945783#1 -267945783#0 267945802#0 267945802#1 267945802#3 267412225#0 267412225#1 267412225#2 267412225#3 267412225#4 267412225#5 267412225#6 25825905#0 25825905#1 -108124769#17 -108124769#16 -108124769#15 -108124769#14 -108124769#13 107801713#0 -107801661#0"/>
    </vehicle>
    <vehicle id="veh54" type="veh_passenger" depart="54.00" departLane="best">
        <route edges="-23632743#9 28553150#1 28553150#2 28553150#3 28553150#4 28553150#5 28553150#6 28553150#7 58527544#4 58527544#5 58527544#6 58527544#7 58527544#8 58527544#9 58527544#10 58527544#11 293501354#1 293501354#2 46144115#0 46144115#1 46144115#3 46144115#4 46144115#5 -214524871#1 -214524871#0 -214524869#3 214524869#3"/>
    </vehicle>
    <vehicle id="veh55" type="veh_passenger" depart="55.00" departLane="best">
        <route edges="-219780636 108124784#9 108124784#10 248239102#2 248239102#4 248239102#5 248239102#6 266765344#0 266765344#1 266765344#2 266765344#3 268609129#0 268609129#1 268609129#2 268609129#3 -405985980#3 -405985980#2 -405985980#1 -405985980#0 311096404#0 311096404#1 311096404#2 45915811#0 45915811#1 45915811#2 45915811#3 45915811#4 45915811#5 45915811#6 45915811#7 45915811#8 45915811#9 45915811#10 279282972#0 279282972#1 279282972#2 279282973#0 279282973#1 -296977683#1 -296977683#0 -81161407#7 -81161407#6 -81161407#5 -81161407#4 -81161407#3 -81161407#2 310373180#1 25823397#14 25823397#15 -405990662#2 -405990662#1 -405990662#0 -240515827#1 28566504#10"/>
    </vehicle>
    <vehicle id="veh56" type="veh_passenger" depart="56.00" departLane="best">
        <route edges="179222105#4 244507825#4 245074761#0 245074761#1 245074761#2 245074761#3 249327639 249154072#0 249154072#1 249154072#2 249154072#3 249154072#4 267234706#1 166456857#0 166456857#1 166456857#2 166456857#3 166456857#4 166456857#5 166456857#6 166456857#7 166456857#8 166456857#9 239754092#0 239754092#1 239754092#2 239754092#3 108126638#0 108126638#1 108126638#2 28426234#5 28426234#6 28426234#7 275625282#0 275625282#1 -268609128#1 -268609128#0"/>
    </vehicle>
    <vehicle id="veh57" type="veh_passenger" depart="57.00" departLane="best">
        <route edges="28578614#3 108126635#0 -108126656#2 -108126656#1 -108126656#0 45923027#3 45923027#4 45923027#5 45923027#6 45923027#7 45923027#8 45923027#9 45923027#10 -214524889#9 -214524889#7 -214524889#6 -214524889#5 -214524889#4"/>
    </vehicle>
    <vehicle id="veh58" type="veh_passenger" depart="58.00" departLane="best">