<?xml version="1.0" encoding="UTF-8"?>
<additional >
  <poly id="107444328" type="building" color="237,199,199" fill="1" layer="-1.00" shape="3942.543465,5879.427675 4102.357562,5885.408491 4086.909980,5726.066766 3923.880910,5751.815422 3942.543465,5879.427675"/> 
    <poly id="107444336" type="building" color="237,199,199" fill="1" layer="-1.00" shape="5029.274276,5509.069231 5166.421871,5473.104241 5118.300038,5301.816792 4978.343927,5335.594053 5000.490007,5411.969080 5029.274276,5509.069231"/> 
    <poly id="107444435" type="building" color="207,245,201" fill="1" layer="-2.00" shape="4121.643674,5888.008228 4180.155158,5892.094520 4172.649573,5803.964417 4160.647649,5712.967702 4104.555937,5719.864007 4121.643674,5888.008228"/> 
    <poly id="107503206" type="building" color="237,199,199" fill="0" layer="-1.00" shape="5108.619645,8099.052853 5131.255608,8091.331644 5128.973707,8080.568130 5200.344974,8063.503786 5203.456275,8077.488214 5220.974968,8071.787407 5171.739042,7874.334489 5140.999866,7882.234632 5092.689847,7894.662040 4907.088803,7942.396176 4853.700188,7956.123739 4829.328564,8009.122956"/> 
    <poly id="107801644" type="building" color="237,199,199" fill="1" layer="-1.00" shape="5199.455744,5996.214880 5202.863004,5959.684159 5294.369335,5956.998133 5294.097561,5951.606291 5295.214002,5937.013965 5301.837217,5888.778788 5307.217745,5856.124471 5159.358611,5805.390447 5149.242715,5995.266836 5199.455744,5996.214880"/> 
    <poly id="108126634" type="building" color="194,194,130" fill="1" layer="-3.00" shape="2863.451431,6796.994508 2901.623982,6809.733537 3074.020230,6867.248490 3124.545283,6719.687968 3003.678272,6677.406700 2913.343348,6645.809735 2863.451431,6796.994508"/> 
    <poly id="108131866" type="building" color="207,245,201" fill="1" layer="-2.00" shape="4712.826803,7014.904536 4717.959901,7000.605413 4650.361038,6976.656797 4662.869698,6941.768057 4765.287760,6978.044058 4753.398945,7014.229160 4747.807086,7017.909243 4743.821292,7026.225768 4712.826803,7014.904536"/> 
    <poly id="108131879" type="building" color="207,245,201" fill="1" layer="-2.00" shape="4534.937264,6967.677339 4544.599720,6939.843377 4614.493143,6963.794546 4624.898820,6933.808503 4515.959393,6896.487338 4495.912053,6954.307096 4534.937264,6967.677339"/> 
    <poly id="108131884" type="building" color="207,245,201" fill="1" layer="-2.00" shape="4453.054096,7329.728617 4463.118590,7321.934026 4474.506748,7316.232174 4481.246049,7312.298565 4490.921690,7308.611222 4492.547636,7302.365094 4515.646178,7238.073961 4501.717516,7220.982275 4495.950904,7207.544452 4493.532295,7191.508568 4493.311199,7179.245157 4498.899805,7158.842801 4508.639212,7132.436934 4446.159598,7112.829624 4380.749490,7307.772210 4453.054096,7329.728617"/> 
    <poly id="108131891" type="building" color="237,199,199" fill="1" layer="-1.00" shape="4636.049382,7141.565749 4516.578630,7102.051965 4554.942948,6987.452121 4674.414415,7026.966282 4636.049382,7141.565749"/> 
    <poly id="108234965" type="building" color="184,184,179" fill="1" layer="-1.00" shape="2960.323426,7236.338011 2974.033345,7237.286298 2963.063360,7215.532134 2944.217496,7196.292268 2931.974926,7187.194441 2915.272209,7181.191742 2911.218593,7193.089523 2929.145119,7199.070028 2938.325205,7205.508336 2952.475585,7219.968413 2960.323426,7236.338011"/> 
    <poly id="108234967#1" type="building" color="237,199,255" fill="1" layer="-1.00" shape="2869.621191,6901.228858 2896.553989,6898.357931 2893.108819,6868.920650 2934.682928,6883.736851 2943.966212,6855.564873 2875.925157,6832.440644 2863.218164,6839.164984 2869.621191,6901.228858"/> 
    <poly id="108234981" type="building" color="184,184,179" fill="1" layer="-1.00" shape="2975.639708,7115.357439 2990.277207,7123.203977 3015.648992,7123.342510 3015.755953,7096.323168 2972.923687,7098.894802 2975.639708,7115.357439"/> 
    <poly id="108234983" type="building" color="237,199,199" fill="1" layer="-1.00" shape="3031.014657,7138.445538 3170.852058,7189.447818 3173.895878,7149.055012 3177.694699,7122.511835 3192.586401,7071.132947 3232.837074,6954.411062 3078.807201,6899.786519 3035.174875,7034.788669 3031.014657,7138.445538"/> 
    <poly id="108338155#1" type="building" color="237,199,255" fill="1" layer="-1.00" shape="4628.708648,7623.594696 4627.111317,7593.758428 4610.982704,7594.991071 4597.924259,7596.478676 4589.843183,7601.300803 4566.631892,7668.441901 4592.868881,7676.701269 4612.236310,7623.448330 4628.708648,7623.594696"/> 
    <poly id="111732272" type="building" color="237,199,199" fill="1" layer="-1.00" shape="3056.827303,5668.246073 3086.211359,5579.602844 3110.575339,5587.583819 3081.191169,5676.226990 3056.827303,5668.246073"/> 
    <poly id="111732275" type="building" color="255,230,230" fill="1" layer="-1.00" shape="3125.194200,5697.183695 3156.143745,5602.361919 3204.361654,5618.577140 3183.159307,5686.349078 3178.691921,5690.208828 3173.454753,5694.171169 3168.248098,5697.545627 3163.031619,5700.377259 3154.846734,5703.484269 3148.676769,5704.227634 3142.800172,5703.558307 3137.886371,5702.649915 3130.420405,5700.003571 3125.194200,5697.183695"/> 
    <poly id="111737616" type="building" color="237,199,199" fill="1" layer="-1.00" shape="4496.303381,7596.238503 4497.639721,7617.291734 4513.689840,7616.270934 4512.343239,7595.217889 4496.303381,7596.238503"/> 
    <poly id="111737618#1" type="building" color="237,199,255" fill="1" layer="-1.00" shape="3828.008629,7588.412155 3830.975863,7611.995839 3816.144328,7613.848622 3813.177070,7590.264939 3828.008629,7588.412155"/> 
    <poly id="113740778" type="building" color="237,199,199" fill="1" layer="-1.00" shape="4744.991237,7187.132225 4758.324503,7144.338581 4767.456334,7115.018325 4785.542851,7064.814158 4792.842260,7044.558462 4799.492770,7025.400457 4813.124119,6988.286414 4816.511815,6978.174376 4842.567653,6894.038957 4883.255224,6763.740170 5025.289390,6808.480495 5011.874894,6845.679011 5014.310128,6855.808113 5015.125707,6866.830722 5090.984943,6892.482971 5065.641674,6968.836777 5139.189807,6993.577756 5113.100310,7069.623539 5083.074774,7163.603766 5071.127368,7198.847674 5039.689542,7289.772785 4951.390039,7259.291702 4944.309511,7256.848215 4929.144317,7251.613631 4920.065803,7248.474732 4832.863042,7218.373471 4817.912328,7213.057554 4744.991237,7187.132225"/> 
    <poly id="167298051" type="building" color="237,199,199" fill="1" layer="-1.00" shape="2024.317451,7163.406525 2070.344241,7027.060216 2083.359532,7020.340632 2231.600074,7069.807905 2236.473627,7084.934718 2190.958508,7219.497978 2024.317451,7163.406525"/> 
    <poly id="179137073" type="building" color="255,230,230" fill="1" layer="-1.00" shape="5025.535335,7157.203263 5017.505431,7180.896184 5071.127368,7198.847674 5083.074774,7163.603766 5057.852446,7155.159011 5053.945309,7166.709856 5025.535335,7157.203263"/> 
    <poly id="179163368" type="building" color="207,245,201" fill="1" layer="-2.00" shape="5102.859272,6992.136790 5114.221643,6995.844218 5106.182079,7020.157804 5094.819523,7016.439306 5102.859272,6992.136790"/> 
    <poly id="179163370" type="building" color="207,245,201" fill="1" layer="-2.00" shape="5097.957479,7056.487187 5105.855529,7034.603008 5116.043881,7038.242899 5108.135536,7060.127256 5097.957479,7056.487187"/> 
    <poly id="179163373" type="building" color="255,230,230" fill="1" layer="-1.00" shape="4991.397790,7015.784516 5008.950866,6963.329673 5070.652130,6983.728972 5053.098885,7036.183725 4991.397790,7015.784516"/> 
    <poly id="179163375" type="building" color="207,245,201" fill="1" layer="-2.00" shape="5059.345832,7039.750430 5072.950486,7044.581053 5082.130570,7019.050110 5068.536182,7014.219292 5059.345832,7039.750430"/> 
    <poly id="179163377" type="building" color="207,245,201" fill="1" layer="-2.00" shape="5069.443508,7008.041596 5083.168207,7012.681684 5091.349008,6988.786642 5077.624292,6984.146545 5069.443508,7008.041596"/> 
    <poly id="179163380" type="building" color="207,245,201" fill="1" layer="-2.00" shape="5083.386933,7051.718246 5091.736593,7029.205364 5102.278800,7033.071595 5093.929128,7055.584470 5083.386933,7051.718246"/> 
    <poly id="179163710" type="building" color="237,199,199" fill="1" layer="-1.00" shape="5000.556065,6929.016915 5019.393406,6871.884721 5067.125690,6887.205134 5047.757571,6945.720919 5000.556065,6929.016915"/> 
    <poly id="179172886" type="building" color="207,245,201" fill="1" layer="-2.00" shape="4909.058699,7127.916432 4920.459314,7094.887447 4925.748800,7096.698274 4930.443745,7096.912969 4933.997895,7095.474875 4936.940757,7091.510093 4937.146477,7086.364519 4935.952558,7081.188729 4932.844248,7077.676395 4928.318804,7074.876630 4951.101109,7008.896641 4975.250006,7017.127859 4934.056328,7136.442573 4909.058699,7127.916432"/> 
    <poly id="179221553" type="building" color="237,199,199" fill="1" layer="-1.00" shape="4800.945000,7110.614214 4807.003835,7094.591883 4817.344712,7098.129099 4822.033744,7099.729071 4869.141371,7115.802527 4870.797600,7116.371117 4886.406960,7121.697399 4880.645476,7138.811418 4818.576758,7116.845950 4816.288807,7116.044946 4812.820486,7114.821932 4800.945000,7110.614214"/> 
    <poly id="179221554" type="building" color="184,184,179" fill="1" layer="-1.00" shape="4768.770108,7147.408446 4758.324503,7144.338581 4785.542851,7064.814158 4796.590368,7068.172412 4768.770108,7147.408446"/> 
    <poly id="179221556" type="building" color="255,230,230" fill="1" layer="-1.00" shape="4863.897867,7097.689820 4870.370894,7078.956150 4872.355862,7073.213376 4874.311176,7067.537627 4877.538016,7058.204215 4885.962566,7061.011344 4888.291258,7061.789463 4898.630535,7065.238109 4893.129728,7081.405487 4892.318622,7083.780474 4891.537173,7086.088438 4885.010398,7105.266329 4876.136674,7102.079432 4874.159043,7101.372567 4872.129593,7100.644472 4863.897867,7097.689820"/> 
    <poly id="179221837" type="building" color="255,230,230" fill="1" layer="-1.00" shape="4856.851575,6982.301815 4860.292778,6974.017295 4897.793539,6987.881290 4894.625209,6995.894928 4856.851575,6982.301815"/> 
    <poly id="179221840" type="building" color="255,230,230" fill="1" layer="-1.00" shape="4899.030194,6880.555696 4864.175981,6869.137389 4866.801059,6861.233262 4855.324386,6857.472648 4871.034754,6810.104015 4917.365770,6825.283004 4899.030194,6880.555696"/> 
    <poly id="179221842" type="building" color="255,230,230" fill="1" layer="-1.00" shape="4893.798250,6863.085504 4865.872960,6853.681221 4874.902027,6827.199831 4902.972332,6836.656933 4899.679403,6846.323969 4893.096517,6844.104238 4890.662949,6851.218117 4897.100856,6853.385047 4893.798250,6863.085504"/> 
    <poly id="179221882" type="building" color="255,230,230" fill="1" layer="-1.00" shape="4922.225421,7172.427007 4930.845980,7175.840114 4932.565925,7179.377436 4931.242099,7182.415466 4936.248785,7184.519506 4935.192544,7187.563801 4939.638904,7189.400887 4940.417676,7186.372668 4944.031340,7187.670663 4945.072513,7184.360681 4950.545292,7182.068014 4957.878451,7184.828328 4961.659051,7186.256302 4963.988759,7192.807934 4969.000222,7195.177856 4968.221645,7198.217151 4971.557634,7199.520149 4972.891435,7197.036024 4976.782763,7198.329029 4978.374496,7194.743182 4983.847274,7192.450527 4989.126633,7194.272635 4994.124174,7181.006656 4988.577426,7179.189358 4985.717624,7173.478384 4986.481138,7170.173403 4982.604873,7169.146084 4982.837768,7167.224772 4978.956518,7165.920503 4977.900583,7168.410707 4972.046134,7165.501872 4966.082009,7171.360573 4961.526910,7169.769232 4956.361261,7167.978330 4954.349211,7163.072142 4955.677829,7160.299987 4949.585696,7159.046599 4949.803633,7156.294435 4946.210016,7155.539077 4944.881200,7158.300154 4940.979889,7156.453255 4939.378388,7159.496282 4934.440888,7161.236318 4928.061426,7158.879948 4922.225421,7172.427007"/> 
    <poly id="179221946" type="building" color="255,230,230" fill="1" layer="-1.00" shape="4864.764936,7176.132125 4797.556716,7152.109455 4799.390865,7147.134016 4791.875948,7143.424025 4784.127846,7142.189441 4788.560632,7127.847547 4797.731299,7131.527719 4801.191977,7124.328827 4808.399505,7126.393195 4804.155596,7135.800354 4811.928235,7138.397547 4810.877309,7141.164716 4830.849415,7147.110521 4834.002910,7138.277087 4843.748646,7143.044012 4841.398126,7150.765904 4862.222960,7157.793473 4863.274092,7155.037386 4871.621795,7158.721334 4874.790267,7150.718763 4881.729871,7153.330987 4879.930202,7160.222914 4885.764617,7162.589077 4883.112192,7168.399275 4876.732211,7166.585934 4872.220579,7176.551972 4866.653553,7174.181000 4864.764936,7176.132125"/> 
    <poly id="179221948" type="building" color="255,230,230" fill="1" layer="-1.00" shape="4821.768711,7209.552803 4831.233618,7183.872451 4858.462925,7194.075931 4855.339153,7204.559988 4850.857070,7216.165585 4849.835667,7220.572301 4821.768711,7209.552803"/> 
    <poly id="179221986#1" type="building" color="237,199,255" fill="1" layer="-1.00" shape="4709.471100,7266.063872 4711.966703,7258.405825 4730.136816,7264.262051 4727.651490,7271.919909 4709.471100,7266.063872"/> 
    <poly id="179222425" type="building" color="207,245,201" fill="1" layer="-2.00" shape="4906.985796,7091.628188 4891.537173,7086.088438 4885.010398,7105.266329 4876.136674,7102.079432 4870.797600,7116.371117 4886.406960,7121.697399 4880.645476,7138.811418 4818.576758,7116.845950 4820.028749,7120.354844 4822.552016,7122.226529 4890.027894,7146.255582 4906.985796,7091.628188"/> 
    <poly id="179222428" type="building" color="140,196,107" fill="1" layer="-3.00" shape="4824.210831,7076.662243 4817.344712,7098.129099 4807.003835,7094.591883 4800.945000,7110.614214 4812.820486,7114.821932 4809.757682,7116.694473 4806.163736,7116.493234 4791.718634,7111.267960 4808.978464,7057.998025 4815.362978,7060.631303 4815.412250,7063.367578 4816.022053,7066.381882 4817.444613,7068.827470 4819.159607,7072.087832 4820.854852,7074.251469 4824.210831,7076.662243"/> 
    <poly id="179222430" type="building" color="207,245,201" fill="1" layer="-2.00" shape="4856.483509,7060.710943 4874.311176,7067.537627 4877.538016,7058.204215 4883.913055,7059.740609 4891.602393,7039.422548 4853.967227,7026.658083 4846.535279,7044.699800 4849.058753,7046.582568 4850.753995,7048.746208 4852.795707,7050.726304 4854.615132,7054.073443 4855.868927,7057.430765 4856.483509,7060.710943"/> 
    <poly id="179222432" type="building" color="207,245,201" fill="1" layer="-2.00" shape="4917.318099,7185.558413 4889.455405,7175.598949 4903.733334,7136.112963 4931.595884,7146.061381 4917.318099,7185.558413"/> 
    <poly id="179222454" type="building" color="207,245,201" fill="1" layer="-2.00" shape="4893.714414,6967.586698 4890.823753,6975.595338 4882.203076,6972.182242 4936.824279,6818.106519 4943.779280,6820.995550 4941.662056,6826.253094 4944.880713,6823.890192 4948.231554,6822.012504 4952.633273,6820.791884 4957.060744,6819.858923 4964.173897,6819.531449 4969.628051,6820.197932 4974.970754,6821.531319 4980.240152,6823.364700 4987.270637,6825.875616 4992.771231,6829.123287 4997.558221,6832.162167 5000.588904,6834.789385 5004.293329,6838.268847 5007.244688,6842.205123 5009.635392,6846.428528 5011.637485,6850.780823 5012.490290,6856.439263 5012.474512,6862.423616 4999.572876,6910.395335 4979.930587,6974.811595 4976.985660,6979.806990 4973.490689,6984.535245 4969.395400,6987.346104 4965.047676,6990.992628 4959.282397,6992.470505 4944.390371,6993.281523 4934.163726,6992.091465 4925.012963,6989.519009 4916.397288,6986.382846 4910.002997,6983.206702 4903.841081,6978.652256 4899.617892,6973.785873 4896.529809,6970.827260 4893.714414,6967.586698"/> 
    <poly id="179222456" type="building" color="207,245,201" fill="1" layer="-2.00" shape="4943.480041,6972.996384 4909.875364,6961.256309 4910.931822,6958.223092 4944.818648,6970.778132 4945.611876,6969.123776 4957.846247,6973.834909 4955.724063,6978.815503 4943.480041,6972.996384"/> 
    <poly id="179222457" type="building" color="207,245,201" fill="1" layer="-2.00" shape="4998.523538,6865.799650 4991.281126,6862.372770 4995.916339,6859.264085 4997.249981,6856.768889 4999.148942,6854.817602 5001.939614,6856.684507 5002.291440,6860.800536 5000.125088,6862.756634 4998.523538,6865.799650"/> 
    <poly id="179222458" type="building" color="207,245,201" fill="1" layer="-2.00" shape="4967.981874,6970.538568 4901.186548,6947.771235 4933.608856,6853.802865 5000.394222,6876.570560 4967.981874,6970.538568"/> 
    <poly id="179222459" type="building" color="207,245,201" fill="1" layer="-2.00" shape="4954.997555,6847.555761 4970.756722,6849.189284 4970.935720,6843.700665 4968.085834,6838.543591 4965.270435,6835.303015 4960.546107,6833.459831 4956.124373,6832.996405 4951.166825,6833.628620 4947.344387,6836.168611 4943.279280,6840.087090 4954.997555,6847.555761"/> 
    <poly id="179222556" type="building" color="237,199,199" fill="1" layer="-1.00" shape="4852.577037,6933.442316 4842.847510,6930.725180 4845.690577,6920.645122 4855.419910,6923.351182 4852.577037,6933.442316"/> 
    <poly id="179222559" type="building" color="207,245,201" fill="1" layer="-2.00" shape="4929.576689,7021.307602 4892.221418,7007.518495 4900.063385,6986.532800 4937.418496,7000.310853 4929.576689,7021.307602"/> 
    <poly id="179222580" type="building" color="255,230,230" fill="1" layer="-1.00" shape="4914.164612,6816.043142 4874.199706,6803.043458 4877.868681,6792.549608 4917.853348,6806.646029 4914.164612,6816.043142"/> 
    <poly id="185644775" type="building" color="237,199,199" fill="1" layer="-1.00" shape="4010.344190,6781.538820 4052.194221,6651.016561 4207.291830,6702.805640 4164.391120,6828.182238 4010.344190,6781.538820"/> 
    <poly id="189157210" type="building" color="237,199,199" fill="1" layer="-1.00" shape="3597.854954,7044.293840 3654.500844,7063.194384 3837.323233,7124.196746 3919.526499,6887.047838 3757.034429,6832.525246 3726.694850,6919.544328 3648.578883,6896.133545 3597.854954,7044.293840"/> 
    <poly id="189161911" type="building" color="255,230,230" fill="1" layer="-1.00" shape="2113.515498,6681.540467 2121.643355,6681.558930 2121.631703,6688.274751 2148.916521,6688.332835 2148.930170,6682.858148 2157.387131,6682.870647 2157.434075,6661.116103 2149.604665,6661.103276 2149.616705,6655.539963 2122.105567,6655.485985 2122.093107,6662.157493 2113.563939,6662.135242 2113.515498,6681.540467"/> 
    <poly id="203361437" type="building" color="194,194,130" fill="1" layer="-3.00" shape="5551.121621,5524.827942 5494.254484,5515.498458 5518.286986,5584.781096 5549.213080,5694.221444 5555.163371,5757.478929 5556.385272,5822.117823 5549.832740,5873.764633 5539.522696,5922.985555 5505.021829,6030.464330 5601.350480,6039.694825 5588.391177,6145.368349 6008.240187,6192.747057 6046.962259,5771.199674 6029.577897,5770.779768 6041.862046,5635.830760 6053.769401,5636.614773 6060.025754,5571.775652 5814.146758,5555.880923 5642.908711,5547.981420 5616.115248,5528.925390 5551.121621,5524.827942"/> 
    <poly id="203586428" type="building" color="207,245,201" fill="1" layer="-2.00" shape="4762.102254,5471.931577 4778.453785,5474.385534 4793.976925,5482.262241 4804.783452,5495.609500 4807.232515,5508.209544 4801.583902,5521.919409 4795.262332,5533.679943 4787.612205,5538.505138 4692.954028,5573.154612 4679.383732,5572.024804 4669.601785,5565.873315 4659.974263,5552.870608 4655.874972,5539.480245 4655.652373,5527.117162 4659.668710,5517.614388 4667.186128,5507.705050 4762.102254,5471.931577"/> 
    <poly id="203586430" type="building" color="207,245,201" fill="1" layer="-2.00" shape="4578.067022,5620.259108 4657.492279,5613.875305 4612.383081,5470.792674 4544.359192,5496.729805 4578.067022,5620.259108"/> 
    <poly id="203586432" type="building" color="207,245,201" fill="1" layer="-2.00" shape="4781.347528,5464.814353 4777.548774,5455.540920 4649.899381,5503.594727 4652.385916,5511.983071 4645.974986,5523.346350 4643.168048,5536.018860 4645.928232,5551.605331 4653.096276,5566.292396 4665.945838,5575.391763 4684.877817,5584.027020 4799.309936,5541.918310 4808.667429,5530.202879 4814.801527,5520.030396 4814.579457,5507.689481 4811.308300,5494.572312 4806.143187,5483.694465 4797.437765,5475.617485 4789.902348,5470.810693 4781.347528,5464.814353"/> 
    <poly id="204921260" type="building" color="184,184,179" fill="1" layer="-1.00" shape="2933.627719,5440.309313 2999.150915,5462.139216 3027.564788,5379.564121 2994.611828,5366.042768 3020.780443,5290.146331 2988.174478,5279.887807 2933.627719,5440.309313"/> 
    <poly id="205153043" type="building" color="181,209,209" fill="1" layer="-4.00" shape="2552.293599,7007.742148 2554.150038,7019.898459 2568.989378,7026.943075 2584.884600,7033.214974 2597.396005,7036.700279 2606.071208,7039.113796 2607.247010,7039.846019 2616.548571,7045.594883 2621.258719,7069.878324 2635.289909,7077.746637 2654.857836,7074.953502 2667.766829,7071.439015 2673.758154,7071.086490 2682.339344,7070.022062 2689.497748,7067.653638 2702.723458,7065.718134 2710.588471,7066.572790 2718.547546,7062.405680 2723.658946,7060.617423 2728.121398,7052.546470 2730.391284,7047.806598 2724.705970,7042.911849 2715.312369,7042.860647 2691.685051,7032.850285 2664.352473,7027.284514 2660.635237,7026.531917 2659.369013,7023.651459 2650.516122,7003.510223 2637.717110,6985.878605 2620.316663,6973.195429 2582.840730,6979.560624 2564.232557,6990.459394 2555.372362,6997.125273 2552.293599,7007.742148"/> 
    <poly id="205165612" type="building" color="237,199,199" fill="1" layer="-1.00" shape="2850.621962,5864.018225 2803.247397,6012.918654 2637.337636,5956.817119 2687.350293,5808.787958 2771.921183,5840.521973 2850.621962,5864.018225"/> 
    <poly id="206833531" type="building" color="207,245,201" fill="1" layer="-2.00" shape="4986.415821,7545.497932 5106.286831,7532.635930 5110.433530,7540.695226 5083.108161,7581.136091 5063.045488,7607.849186 5042.896429,7627.471636 5024.999394,7645.901099 4998.900227,7658.427657 4957.192842,7673.085876 4938.090253,7682.827004 4986.415821,7545.497932"/> 
    <poly id="206833536" type="building" color="207,245,201" fill="1" layer="-2.00" shape="4719.466108,7451.977833 4716.741658,7522.871872 4899.763266,7506.432641 4719.466108,7451.977833"/> 
    <poly id="206833538" type="building" color="207,245,201" fill="1" layer="-2.00" shape="4799.276724,7452.102657 4819.905402,7459.111495 4886.122214,7254.449316 4863.996036,7247.700039 4799.276724,7452.102657"/> 
    <poly id="206833540" type="building" color="207,245,201" fill="1" layer="-2.00" shape="4706.906250,7833.966882 4358.764205,8135.028295 4208.019448,8270.530205 4204.171097,8246.541321 4346.975261,8121.333519 4476.315591,8005.789609 4690.287049,7816.524648 4706.906250,7833.966882"/> 
    <poly id="214028075" type="building" color="255,230,230" fill="1" layer="-1.00" shape="3322.205002,5786.194701 3313.635997,5812.990268 3389.564986,5838.589474 3393.770742,5828.229539 3391.079511,5808.563810 3398.302733,5811.447377 3404.107615,5793.367794 3363.473468,5778.876565 3322.205002,5786.194701"/> 
    <poly id="214028078" type="building" color="255,230,230" fill="1" layer="-1.00" shape="2893.941381,5501.490532 2881.618769,5537.441478 2924.943016,5552.126622 2937.275995,5516.175533 2893.941381,5501.490532"/> 
    <poly id="214039173" type="building" color="255,230,230" fill="1" layer="-1.00" shape="3856.992373,6287.659834 3843.035785,6325.490005 3834.236587,6349.818163 3866.709733,6361.432515 3875.519456,6337.115273 3889.436567,6299.374506 3856.992373,6287.659834"/> 
    <poly id="214039175" type="building" color="237,199,199" fill="1" layer="-1.00" shape="4057.677858,6636.212159 4191.156434,6680.911269 4196.153526,6666.503570 4217.186478,6673.604193 4246.082963,6585.105433 4221.995392,6576.918456 4234.155790,6541.570158 4117.969739,6502.542553 4109.878160,6506.810979 4100.433533,6511.923875 4057.677858,6636.212159"/> 
    <poly id="214524842" type="building" color="237,199,199" fill="1" layer="-1.00" shape="3832.606666,7808.633749 3952.525265,7796.226933 3937.275701,7650.257071 3818.139514,7662.760540 3832.606666,7808.633749"/> 
    <poly id="214524874" type="building" color="237,199,199" fill="1" layer="-1.00" shape="2713.999857,7230.200414 2664.133982,7376.332638 2492.630372,7318.507345 2542.494745,7172.363342 2713.999857,7230.200414"/> 
    <poly id="214524876#1" type="building" color="207,245,201" fill="1" layer="-2.00" shape="2971.974638,7740.503787 2984.351505,7769.513158 2993.924400,7762.457785 2999.307250,7754.093163 3001.619903,7745.473919 3001.941272,7737.666505 2971.974638,7740.503787"/> 
    <poly id="214524877#1" type="building" color="207,245,201" fill="1" layer="-2.00" shape="2923.655292,7699.645943 2922.610852,7668.148228 2911.125981,7671.315357 2903.074740,7677.190673 2897.804499,7684.389698 2894.673709,7691.572085 2923.655292,7699.645943"/> 
    <poly id="214524878#1" type="building" color="207,245,201" fill="1" layer="-2.00" shape="2928.337884,7738.890352 2898.253702,7729.007994 2897.274567,7740.816798 2900.040099,7750.363485 2905.019609,7757.764472 2910.713666,7763.157776 2928.337884,7738.890352"/> 
    <poly id="214524879#1" type="building" color="207,245,201" fill="1" layer="-2.00" shape="2966.179529,7697.766619 2997.677578,7694.280991 2993.618065,7683.150893 2987.113757,7675.622381 2979.478219,7670.951324 2972.035702,7668.415557 2966.179529,7697.766619"/> 
    <poly id="214524885" type="building" color="237,199,199" fill="1" layer="-1.00" shape="3195.596921,7240.175215 3314.945960,7243.211123 3322.225178,7236.153222 3322.590964,7184.195289 3327.903601,7141.245926 3338.553790,7080.014770 3340.582778,7072.187561 3222.306836,7031.908189 3201.094499,7106.928114 3195.275753,7148.612325 3193.161368,7201.699081 3195.596921,7240.175215"/> 
    <poly id="214524892" type="building" color="184,184,179" fill="1" layer="-1.00" shape="2924.178271,7336.485751 2925.251697,7353.133316 2934.228101,7350.044957 2953.392997,7338.659998 2958.952242,7333.206697 2968.575004,7323.778936 2978.961068,7308.220192 2984.119001,7292.545682 2963.237757,7293.245611 2958.202369,7310.003926 2944.877521,7325.183779 2932.538323,7335.148411 2924.178271,7336.485751"/> 
    <poly id="214524895" type="building" color="207,245,201" fill="1" layer="-2.00" shape="3338.863969,7241.481507 3461.727960,7246.615856 3461.124924,7213.292859 3461.079126,7186.885874 3339.823108,7150.128257 3337.190560,7197.350979 3338.863969,7241.481507"/> 
    <poly id="214771326" type="building" color="255,230,230" fill="1" layer="-1.00" shape="4697.847051,7912.942840 4741.683957,7903.475968 4734.507609,7870.581964 4690.670807,7880.059924 4697.847051,7912.942840"/> 
    <poly id="215078063" type="building" color="255,230,230" fill="1" layer="-1.00" shape="2111.065355,6380.379998 2105.593399,6397.999890 2165.780186,6418.426865 2171.235715,6419.712945 2175.690448,6419.144382 2179.933697,6416.562766 2181.377526,6412.225685 2181.209279,6407.496791 2178.370394,6403.569998 2171.223155,6400.907265 2111.065355,6380.379998"/> 
    <poly id="215078066" type="building" color="242,242,204" fill="1" layer="-3.00" shape="2633.980774,6717.633386 2616.160929,6713.601611 2615.729988,6706.295431 2611.830802,6697.788864 2608.475842,6693.760558 2613.348912,6675.431447 2620.737573,6680.638799 2627.838006,6690.372766 2632.420492,6700.817336 2634.926997,6709.681634 2633.980774,6717.633386"/> 
    <poly id="215078068" type="building" color="242,242,204" fill="1" layer="-3.00" shape="2585.608498,6764.766784 2591.127562,6747.456543 2598.486626,6747.633271 2607.338538,6744.469446 2611.656585,6741.476561 2629.621061,6747.810721 2623.789562,6754.709702 2613.450064,6760.936935 2602.889062,6765.162386 2593.497433,6766.363447 2585.608498,6764.766784"/> 
    <poly id="215078072" type="building" color="242,242,204" fill="1" layer="-3.00" shape="2036.886583,6348.084056 2025.414868,6372.960883 2058.638397,6383.870854 2057.017429,6393.175847 2181.070609,6432.134273 2191.271189,6401.839497 2036.886583,6348.084056"/> 
    <poly id="215078075" type="building" color="194,194,130" fill="1" layer="-3.00" shape="2013.251499,5582.834668 2011.181474,5592.347286 2049.799981,5666.769214 2284.656830,5545.943469 2305.978717,5586.370663 2340.379743,5597.459509 2365.565897,5523.186189 2362.392253,5517.259620 2224.074669,5473.327375 2215.846321,5474.042005 2013.251499,5582.834668"/> 
    <poly id="219780648" type="building" color="242,242,204" fill="1" layer="-3.00" shape="3952.617963,6314.313038 3938.526618,6359.503778 3963.350333,6367.976282 3967.969341,6370.807363 4001.306221,6382.406387 4006.300549,6384.942577 4039.637361,6396.541678 4045.788158,6399.311883 4053.863583,6402.124919 4057.036205,6392.083048 4071.796479,6352.587448 4073.789352,6345.581097 3989.963104,6318.270879 3978.818659,6314.715400 3976.490027,6321.927301 3952.617963,6314.313038"/> 
    <poly id="219780650" type="building" color="255,230,230" fill="1" layer="-1.00" shape="3853.423522,6415.296886 3843.875534,6443.162555 3857.663528,6447.833753 3842.349441,6492.514805 3856.830865,6497.417267 3871.685822,6454.085413 3876.664747,6455.768549 3886.671948,6426.553726 3853.423522,6415.296886"/> 
    <poly id="219780653" type="building" color="255,230,230" fill="1" layer="-1.00" shape="3967.969341,6370.807363 3958.486788,6397.751968 3991.823622,6409.350966 4001.306221,6382.406387 3967.969341,6370.807363"/> 
    <poly id="219780655" type="building" color="255,230,230" fill="1" layer="-1.00" shape="4057.036205,6392.083048 4084.032668,6401.813070 4098.384695,6361.925930 4071.796479,6352.587448 4057.036205,6392.083048"/> 
    <poly id="219780657" type="building" color="255,230,230" fill="1" layer="-1.00" shape="3946.345231,6289.980087 3935.345523,6324.066547 3948.145532,6328.146184 3952.617963,6314.313038 3976.490027,6321.927301 3978.818659,6314.715400 3989.963104,6318.270879 3994.172289,6305.240385 3946.345231,6289.980087"/> 