<?xml version="1.0" encoding="UTF-8"?>
<configuration  xmlns:xsi="http://www.w3.org/2001/XMLSchema-instance" xsi:noNamespaceSchemaLocation="http://sumo.sf.net/xsd/sumoConfiguration.xsd">
 
    <input>
        <net-file value="net.net.xml"/>
        <additional-files value="net.poly.xml"/>
		<route-files value="1net.rou.xml"/>
    </input>
 
     <processing>
        <ignore-route-errors value="true"/>
    </processing>

    <routing>
        <device.rerouting.adaptation-steps value="180"/>
    </routing>

    <report>
        <verbose value="true"/>
        <duration-log.statistics value="true"/>
        <no-step-log value="true"/>
    </report>

	
    <gui_only>
	   <gui-settings-file value="net.view.xml"/>
        <start value="true"/>
    </gui_only>
 
</configuration>
