<?xml version="1.0" encoding="UTF-8"?>

<!-- generated on 05/28/19 19:42:41 by Eclipse SUMO netedit Version 1.1.0
<configuration xmlns:xsi="http://www.w3.org/2001/XMLSchema-instance" xsi:noNamespaceSchemaLocation="http://sumo.dlr.de/xsd/netconvertConfiguration.xsd">

    <input>
        <sumo-net-file value="C:\Users\Administrator\Desktop\net.net.xml"/>
    </input>

    <output>
        <output-file value="C:\Users\Administrator\Desktop\net.net.xml"/>
    </output>

    <processing>
        <geometry.max-grade.fix value="false"/>
        <offset.disable-normalization value="true"/>
        <lefthand value="false"/>
    </processing>

    <junctions>
        <no-turnarounds value="true"/>
        <junctions.corner-detail value="5"/>
        <junctions.limit-turn-speed value="5.5"/>
        <rectangular-lane-cut value="false"/>
    </junctions>

    <pedestrian>
        <walkingareas value="false"/>
    </pedestrian>

</configuration>

-->

<net version="1.1"  junctionCornerDetail="5" limitTurnSpeed="5.50" xmlns:xsi="http://www.w3.org/2001/XMLSchema-instance" xsi:noNamespaceSchemaLocation="http://sumo.dlr.de/xsd/net_file.xsd">

    <location netOffset="0.00,0.00" convBoundary="-400.00,-400.00,400.00,400.00" origBoundary="-10000000000.00,-10000000000.00,10000000000.00,10000000000.00" projParameter="!"/>

    <edge id=":gneJ0_0" function="internal">
        <lane id=":gneJ0_0_0" index="0" speed="8.96" length="18.06" shape="-393.60,404.80 -398.50,404.10 -402.00,402.00 -404.10,398.50 -404.80,393.60"/>
    </edge>
    <edge id=":gneJ0_1" function="internal">
        <lane id=":gneJ0_1_0" index="0" speed="7.66" length="12.90" shape="-393.60,401.60 -397.10,401.10 -399.60,399.60 -401.10,397.10 -401.60,393.60"/>
    </edge>
    <edge id=":gneJ0_2" function="internal">
        <lane id=":gneJ0_2_0" index="0" speed="3.90" length="2.58" shape="-395.20,393.60 -395.10,394.30 -394.80,394.80 -394.30,395.10 -393.60,395.20"/>
    </edge>
    <edge id=":gneJ0_3" function="internal">
        <lane id=":gneJ0_3_0" index="0" speed="6.08" length="7.74" shape="-398.40,393.60 -398.10,395.70 -397.20,397.20 -395.70,398.10 -393.60,398.40"/>
    </edge>
    <edge id=":gneJ1_0" function="internal">
        <lane id=":gneJ1_0_0" index="0" speed="13.89" length="20.80" shape="-289.60,404.80 -310.40,404.80"/>
        <lane id=":gneJ1_0_1" index="1" speed="13.89" length="20.80" shape="-289.60,401.60 -310.40,401.60"/>
    </edge>
    <edge id=":gneJ1_2" function="internal">
        <lane id=":gneJ1_2_0" index="0" speed="13.89" length="6.96" shape="-289.60,401.60 -294.85,400.85 -296.27,400.00"/>
    </edge>
    <edge id=":gneJ1_8" function="internal">
        <lane id=":gneJ1_8_0" index="0" speed="13.89" length="12.40" shape="-296.27,400.00 -298.60,398.60 -300.85,394.85 -301.60,389.60"/>
    </edge>
    <edge id=":gneJ1_3" function="internal">
        <lane id=":gneJ1_3_0" index="0" speed="13.89" length="9.03" shape="-295.20,389.60 -294.85,392.05 -293.80,393.80 -292.05,394.85 -289.60,395.20"/>
    </edge>
    <edge id=":gneJ1_4" function="internal">
        <lane id=":gneJ1_4_0" index="0" speed="13.89" length="19.35" shape="-298.40,389.60 -299.15,394.85 -301.40,398.60 -305.15,400.85 -310.40,401.60"/>
    </edge>
    <edge id=":gneJ1_5" function="internal">
        <lane id=":gneJ1_5_0" index="0" speed="13.89" length="9.03" shape="-310.40,395.20 -307.95,394.85 -306.20,393.80 -305.15,392.05 -304.80,389.60"/>
    </edge>
    <edge id=":gneJ1_6" function="internal">
        <lane id=":gneJ1_6_0" index="0" speed="13.89" length="20.80" shape="-310.40,395.20 -289.60,395.20"/>
        <lane id=":gneJ1_6_1" index="1" speed="13.89" length="20.80" shape="-310.40,398.40 -289.60,398.40"/>
    </edge>
    <edge id=":gneJ10_0" function="internal">
        <lane id=":gneJ10_0_0" index="0" speed="13.89" length="9.03" shape="395.20,210.40 394.85,207.95 393.80,206.20 392.05,205.15 389.60,204.80"/>
    </edge>
    <edge id=":gneJ10_1" function="internal">
        <lane id=":gneJ10_1_0" index="0" speed="13.89" length="20.80" shape="395.20,210.40 395.20,189.60"/>
        <lane id=":gneJ10_1_1" index="1" speed="13.89" length="20.80" shape="398.40,210.40 398.40,189.60"/>
    </edge>
    <edge id=":gneJ10_3" function="internal">
        <lane id=":gneJ10_3_0" index="0" speed="13.89" length="20.80" shape="404.80,189.60 404.80,210.40"/>
        <lane id=":gneJ10_3_1" index="1" speed="13.89" length="20.80" shape="401.60,189.60 401.60,210.40"/>
    </edge>
    <edge id=":gneJ10_5" function="internal">
        <lane id=":gneJ10_5_0" index="0" speed="13.89" length="6.96" shape="401.60,189.60 400.85,194.85 400.00,196.27"/>
    </edge>
    <edge id=":gneJ10_8" function="internal">
        <lane id=":gneJ10_8_0" index="0" speed="13.89" length="12.40" shape="400.00,196.27 398.60,198.60 394.85,200.85 389.60,201.60"/>
    </edge>
    <edge id=":gneJ10_6" function="internal">
        <lane id=":gneJ10_6_0" index="0" speed="13.89" length="9.03" shape="389.60,195.20 392.05,194.85 393.80,193.80 394.85,192.05 395.20,189.60"/>
    </edge>
    <edge id=":gneJ10_7" function="internal">
        <lane id=":gneJ10_7_0" index="0" speed="13.89" length="19.35" shape="389.60,198.40 394.85,199.15 398.60,201.40 400.85,205.15 401.60,210.40"/>
    </edge>
    <edge id=":gneJ11_0" function="internal">
        <lane id=":gneJ11_0_0" index="0" speed="13.89" length="9.03" shape="395.20,110.40 394.85,107.95 393.80,106.20 392.05,105.15 389.60,104.80"/>
    </edge>
    <edge id=":gneJ11_1" function="internal">
        <lane id=":gneJ11_1_0" index="0" speed="13.89" length="20.80" shape="395.20,110.40 395.20,89.60"/>
        <lane id=":gneJ11_1_1" index="1" speed="13.89" length="20.80" shape="398.40,110.40 398.40,89.60"/>
    </edge>
    <edge id=":gneJ11_3" function="internal">
        <lane id=":gneJ11_3_0" index="0" speed="13.89" length="20.80" shape="404.80,89.60 404.80,110.40"/>
        <lane id=":gneJ11_3_1" index="1" speed="13.89" length="20.80" shape="401.60,89.60 401.60,110.40"/>
    </edge>
    <edge id=":gneJ11_5" function="internal">
        <lane id=":gneJ11_5_0" index="0" speed="13.89" length="6.96" shape="401.60,89.60 400.85,94.85 400.00,96.27"/>
    </edge>
    <edge id=":gneJ11_8" function="internal">
        <lane id=":gneJ11_8_0" index="0" speed="13.89" length="12.40" shape="400.00,96.27 398.60,98.60 394.85,100.85 389.60,101.60"/>
    </edge>
    <edge id=":gneJ11_6" function="internal">
        <lane id=":gneJ11_6_0" index="0" speed="13.89" length="9.03" shape="389.60,95.20 392.05,94.85 393.80,93.80 394.85,92.05 395.20,89.60"/>
    </edge>
    <edge id=":gneJ11_7" function="internal">
        <lane id=":gneJ11_7_0" index="0" speed="13.89" length="19.35" shape="389.60,98.40 394.85,99.15 398.60,101.40 400.85,105.15 401.60,110.40"/>
    </edge>
    <edge id=":gneJ12_0" function="internal">
        <lane id=":gneJ12_0_0" index="0" speed="13.89" length="9.03" shape="395.20,10.40 394.85,7.95 393.80,6.20 392.05,5.15 389.60,4.80"/>
    </edge>
    <edge id=":gneJ12_1" function="internal">
        <lane id=":gneJ12_1_0" index="0" speed="13.89" length="20.80" shape="395.20,10.40 395.20,-10.40"/>
        <lane id=":gneJ12_1_1" index="1" speed="13.89" length="20.80" shape="398.40,10.40 398.40,-10.40"/>
    </edge>
    <edge id=":gneJ12_3" function="internal">
        <lane id=":gneJ12_3_0" index="0" speed="13.89" length="20.80" shape="404.80,-10.40 404.80,10.40"/>
        <lane id=":gneJ12_3_1" index="1" speed="13.89" length="20.80" shape="401.60,-10.40 401.60,10.40"/>
    </edge>
    <edge id=":gneJ12_5" function="internal">
        <lane id=":gneJ12_5_0" index="0" speed="13.89" length="6.96" shape="401.60,-10.40 400.85,-5.15 400.00,-3.73"/>
    </edge>
    <edge id=":gneJ12_8" function="internal">
        <lane id=":gneJ12_8_0" index="0" speed="13.89" length="12.40" shape="400.00,-3.73 398.60,-1.40 394.85,0.85 389.60,1.60"/>
    </edge>
    <edge id=":gneJ12_6" function="internal">
        <lane id=":gneJ12_6_0" index="0" speed="13.89" length="9.03" shape="389.60,-4.80 392.05,-5.15 393.80,-6.20 394.85,-7.95 395.20,-10.40"/>
    </edge>
    <edge id=":gneJ12_7" function="internal">
        <lane id=":gneJ12_7_0" index="0" speed="13.89" length="19.35" shape="389.60,-1.60 394.85,-0.85 398.60,1.40 400.85,5.15 401.60,10.40"/>
    </edge>
    <edge id=":gneJ13_0" function="internal">
        <lane id=":gneJ13_0_0" index="0" speed="13.89" length="9.03" shape="395.20,-89.60 394.85,-92.05 393.80,-93.80 392.05,-94.85 389.60,-95.20"/>
    </edge>
    <edge id=":gneJ13_1" function="internal">
        <lane id=":gneJ13_1_0" index="0" speed="13.89" length="20.80" shape="395.20,-89.60 395.20,-110.40"/>
        <lane id=":gneJ13_1_1" index="1" speed="13.89" length="20.80" shape="398.40,-89.60 398.40,-110.40"/>
    </edge>
    <edge id=":gneJ13_3" function="internal">
        <lane id=":gneJ13_3_0" index="0" speed="13.89" length="20.80" shape="404.80,-110.40 404.80,-89.60"/>
        <lane id=":gneJ13_3_1" index="1" speed="13.89" length="20.80" shape="401.60,-110.40 401.60,-89.60"/>
    </edge>
    <edge id=":gneJ13_5" function="internal">
        <lane id=":gneJ13_5_0" index="0" speed="13.89" length="6.96" shape="401.60,-110.40 400.85,-105.15 400.00,-103.73"/>
    </edge>
    <edge id=":gneJ13_8" function="internal">
        <lane id=":gneJ13_8_0" index="0" speed="13.89" length="12.40" shape="400.00,-103.73 398.60,-101.40 394.85,-99.15 389.60,-98.40"/>
    </edge>
    <edge id=":gneJ13_6" function="internal">
        <lane id=":gneJ13_6_0" index="0" speed="13.89" length="9.03" shape="389.60,-104.80 392.05,-105.15 393.80,-106.20 394.85,-107.95 395.20,-110.40"/>
    </edge>
    <edge id=":gneJ13_7" function="internal">
        <lane id=":gneJ13_7_0" index="0" speed="13.89" length="19.35" shape="389.60,-101.60 394.85,-100.85 398.60,-98.60 400.85,-94.85 401.60,-89.60"/>
    </edge>
    <edge id=":gneJ14_0" function="internal">
        <lane id=":gneJ14_0_0" index="0" speed="13.89" length="9.03" shape="395.20,-189.60 394.85,-192.05 393.80,-193.80 392.05,-194.85 389.60,-195.20"/>
    </edge>
    <edge id=":gneJ14_1" function="internal">
        <lane id=":gneJ14_1_0" index="0" speed="13.89" length="20.80" shape="395.20,-189.60 395.20,-210.40"/>
        <lane id=":gneJ14_1_1" index="1" speed="13.89" length="20.80" shape="398.40,-189.60 398.40,-210.40"/>
    </edge>
    <edge id=":gneJ14_3" function="internal">
        <lane id=":gneJ14_3_0" index="0" speed="13.89" length="20.80" shape="404.80,-210.40 404.80,-189.60"/>
        <lane id=":gneJ14_3_1" index="1" speed="13.89" length="20.80" shape="401.60,-210.40 401.60,-189.60"/>
    </edge>
    <edge id=":gneJ14_5" function="internal">
        <lane id=":gneJ14_5_0" index="0" speed="13.89" length="6.96" shape="401.60,-210.40 400.85,-205.15 400.00,-203.73"/>
    </edge>
    <edge id=":gneJ14_8" function="internal">
        <lane id=":gneJ14_8_0" index="0" speed="13.89" length="12.40" shape="400.00,-203.73 398.60,-201.40 394.85,-199.15 389.60,-198.40"/>
    </edge>
    <edge id=":gneJ14_6" function="internal">
        <lane id=":gneJ14_6_0" index="0" speed="13.89" length="9.03" shape="389.60,-204.80 392.05,-205.15 393.80,-206.20 394.85,-207.95 395.20,-210.40"/>
    </edge>
    <edge id=":gneJ14_7" function="internal">
        <lane id=":gneJ14_7_0" index="0" speed="13.89" length="19.35" shape="389.60,-201.60 394.85,-200.85 398.60,-198.60 400.85,-194.85 401.60,-189.60"/>
    </edge>
    <edge id=":gneJ15_0" function="internal">
        <lane id=":gneJ15_0_0" index="0" speed="13.89" length="9.03" shape="395.20,-289.60 394.85,-292.05 393.80,-293.80 392.05,-294.85 389.60,-295.20"/>
    </edge>
    <edge id=":gneJ15_1" function="internal">
        <lane id=":gneJ15_1_0" index="0" speed="13.89" length="20.80" shape="395.20,-289.60 395.20,-310.40"/>
        <lane id=":gneJ15_1_1" index="1" speed="13.89" length="20.80" shape="398.40,-289.60 398.40,-310.40"/>
    </edge>
    <edge id=":gneJ15_3" function="internal">
        <lane id=":gneJ15_3_0" index="0" speed="13.89" length="20.80" shape="404.80,-310.40 404.80,-289.60"/>
        <lane id=":gneJ15_3_1" index="1" speed="13.89" length="20.80" shape="401.60,-310.40 401.60,-289.60"/>
    </edge>
    <edge id=":gneJ15_5" function="internal">
        <lane id=":gneJ15_5_0" index="0" speed="13.89" length="6.96" shape="401.60,-310.40 400.85,-305.15 400.00,-303.73"/>
    </edge>
    <edge id=":gneJ15_8" function="internal">
        <lane id=":gneJ15_8_0" index="0" speed="13.89" length="12.40" shape="400.00,-303.73 398.60,-301.40 394.85,-299.15 389.60,-298.40"/>
    </edge>
    <edge id=":gneJ15_6" function="internal">
        <lane id=":gneJ15_6_0" index="0" speed="13.89" length="9.03" shape="389.60,-304.80 392.05,-305.15 393.80,-306.20 394.85,-307.95 395.20,-310.40"/>
    </edge>
    <edge id=":gneJ15_7" function="internal">
        <lane id=":gneJ15_7_0" index="0" speed="13.89" length="19.35" shape="389.60,-301.60 394.85,-300.85 398.60,-298.60 400.85,-294.85 401.60,-289.60"/>
    </edge>
    <edge id=":gneJ16_0" function="internal">
        <lane id=":gneJ16_0_0" index="0" speed="3.90" length="2.58" shape="395.20,-393.60 395.10,-394.30 394.80,-394.80 394.30,-395.10 393.60,-395.20"/>
    </edge>
    <edge id=":gneJ16_1" function="internal">
        <lane id=":gneJ16_1_0" index="0" speed="6.08" length="7.74" shape="398.40,-393.60 398.10,-395.70 397.20,-397.20 395.70,-398.10 393.60,-398.40"/>
    </edge>
    <edge id=":gneJ16_2" function="internal">
        <lane id=":gneJ16_2_0" index="0" speed="8.96" length="18.06" shape="393.60,-404.80 398.50,-404.10 402.00,-402.00 404.10,-398.50 404.80,-393.60"/>
    </edge>
    <edge id=":gneJ16_3" function="internal">
        <lane id=":gneJ16_3_0" index="0" speed="7.66" length="12.90" shape="393.60,-401.60 397.10,-401.10 399.60,-399.60 401.10,-397.10 401.60,-393.60"/>
    </edge>
    <edge id=":gneJ17_0" function="internal">
        <lane id=":gneJ17_0_0" index="0" speed="13.89" length="9.03" shape="295.20,-389.60 294.85,-392.05 293.80,-393.80 292.05,-394.85 289.60,-395.20"/>
    </edge>
    <edge id=":gneJ17_1" function="internal">
        <lane id=":gneJ17_1_0" index="0" speed="13.89" length="19.35" shape="298.40,-389.60 299.15,-394.85 301.40,-398.60 305.15,-400.85 310.40,-401.60"/>
    </edge>
    <edge id=":gneJ17_2" function="internal">
        <lane id=":gneJ17_2_0" index="0" speed="13.89" length="9.03" shape="310.40,-395.20 307.95,-394.85 306.20,-393.80 305.15,-392.05 304.80,-389.60"/>
    </edge>
    <edge id=":gneJ17_3" function="internal">
        <lane id=":gneJ17_3_0" index="0" speed="13.89" length="20.80" shape="310.40,-395.20 289.60,-395.20"/>
        <lane id=":gneJ17_3_1" index="1" speed="13.89" length="20.80" shape="310.40,-398.40 289.60,-398.40"/>
    </edge>
    <edge id=":gneJ17_5" function="internal">
        <lane id=":gneJ17_5_0" index="0" speed="13.89" length="20.80" shape="289.60,-404.80 310.40,-404.80"/>
        <lane id=":gneJ17_5_1" index="1" speed="13.89" length="20.80" shape="289.60,-401.60 310.40,-401.60"/>
    </edge>
    <edge id=":gneJ17_7" function="internal">
        <lane id=":gneJ17_7_0" index="0" speed="13.89" length="6.96" shape="289.60,-401.60 294.85,-400.85 296.27,-400.00"/>
    </edge>
    <edge id=":gneJ17_8" function="internal">
        <lane id=":gneJ17_8_0" index="0" speed="13.89" length="12.40" shape="296.27,-400.00 298.60,-398.60 300.85,-394.85 301.60,-389.60"/>
    </edge>
    <edge id=":gneJ18_0" function="internal">
        <lane id=":gneJ18_0_0" index="0" speed="13.89" length="9.03" shape="195.20,-389.60 194.85,-392.05 193.80,-393.80 192.05,-394.85 189.60,-395.20"/>
    </edge>
    <edge id=":gneJ18_1" function="internal">
        <lane id=":gneJ18_1_0" index="0" speed="13.89" length="19.35" shape="198.40,-389.60 199.15,-394.85 201.40,-398.60 205.15,-400.85 210.40,-401.60"/>
    </edge>
    <edge id=":gneJ18_2" function="internal">
        <lane id=":gneJ18_2_0" index="0" speed="13.89" length="9.03" shape="210.40,-395.20 207.95,-394.85 206.20,-393.80 205.15,-392.05 204.80,-389.60"/>
    </edge>
    <edge id=":gneJ18_3" function="internal">
        <lane id=":gneJ18_3_0" index="0" speed="13.89" length="20.80" shape="210.40,-395.20 189.60,-395.20"/>
        <lane id=":gneJ18_3_1" index="1" speed="13.89" length="20.80" shape="210.40,-398.40 189.60,-398.40"/>
    </edge>
    <edge id=":gneJ18_5" function="internal">
        <lane id=":gneJ18_5_0" index="0" speed="13.89" length="20.80" shape="189.60,-404.80 210.40,-404.80"/>
        <lane id=":gneJ18_5_1" index="1" speed="13.89" length="20.80" shape="189.60,-401.60 210.40,-401.60"/>
    </edge>
    <edge id=":gneJ18_7" function="internal">
        <lane id=":gneJ18_7_0" index="0" speed="13.89" length="6.96" shape="189.60,-401.60 194.85,-400.85 196.27,-400.00"/>
    </edge>
    <edge id=":gneJ18_8" function="internal">
        <lane id=":gneJ18_8_0" index="0" speed="13.89" length="12.40" shape="196.27,-400.00 198.60,-398.60 200.85,-394.85 201.60,-389.60"/>
    </edge>
    <edge id=":gneJ19_0" function="internal">
        <lane id=":gneJ19_0_0" index="0" speed="13.89" length="9.03" shape="95.20,-389.60 94.85,-392.05 93.80,-393.80 92.05,-394.85 89.60,-395.20"/>
    </edge>
    <edge id=":gneJ19_1" function="internal">
        <lane id=":gneJ19_1_0" index="0" speed="13.89" length="19.35" shape="98.40,-389.60 99.15,-394.85 101.40,-398.60 105.15,-400.85 110.40,-401.60"/>
    </edge>
    <edge id=":gneJ19_2" function="internal">
        <lane id=":gneJ19_2_0" index="0" speed="13.89" length="9.03" shape="110.40,-395.20 107.95,-394.85 106.20,-393.80 105.15,-392.05 104.80,-389.60"/>
    </edge>
    <edge id=":gneJ19_3" function="internal">
        <lane id=":gneJ19_3_0" index="0" speed="13.89" length="20.80" shape="110.40,-395.20 89.60,-395.20"/>
        <lane id=":gneJ19_3_1" index="1" speed="13.89" length="20.80" shape="110.40,-398.40 89.60,-398.40"/>
    </edge>
    <edge id=":gneJ19_5" function="internal">
        <lane id=":gneJ19_5_0" index="0" speed="13.89" length="20.80" shape="89.60,-404.80 110.40,-404.80"/>
        <lane id=":gneJ19_5_1" index="1" speed="13.89" length="20.80" shape="89.60,-401.60 110.40,-401.60"/>
    </edge>
    <edge id=":gneJ19_7" function="internal">
        <lane id=":gneJ19_7_0" index="0" speed="13.89" length="6.96" shape="89.60,-401.60 94.85,-400.85 96.27,-400.00"/>
    </edge>
    <edge id=":gneJ19_8" function="internal">
        <lane id=":gneJ19_8_0" index="0" speed="13.89" length="12.40" shape="96.27,-400.00 98.60,-398.60 100.85,-394.85 101.60,-389.60"/>
    </edge>
    <edge id=":gneJ2_0" function="internal">
        <lane id=":gneJ2_0_0" index="0" speed="13.89" length="20.80" shape="-189.60,404.80 -210.40,404.80"/>
        <lane id=":gneJ2_0_1" index="1" speed="13.89" length="20.80" shape="-189.60,401.60 -210.40,401.60"/>
    </edge>
    <edge id=":gneJ2_2" function="internal">
        <lane id=":gneJ2_2_0" index="0" speed="13.89" length="6.96" shape="-189.60,401.60 -194.85,400.85 -196.27,400.00"/>
    </edge>
    <edge id=":gneJ2_8" function="internal">
        <lane id=":gneJ2_8_0" index="0" speed="13.89" length="12.40" shape="-196.27,400.00 -198.60,398.60 -200.85,394.85 -201.60,389.60"/>
    </edge>
    <edge id=":gneJ2_3" function="internal">
        <lane id=":gneJ2_3_0" index="0" speed="13.89" length="9.03" shape="-195.20,389.60 -194.85,392.05 -193.80,393.80 -192.05,394.85 -189.60,395.20"/>
    </edge>
    <edge id=":gneJ2_4" function="internal">
        <lane id=":gneJ2_4_0" index="0" speed="13.89" length="19.35" shape="-198.40,389.60 -199.15,394.85 -201.40,398.60 -205.15,400.85 -210.40,401.60"/>
    </edge>
    <edge id=":gneJ2_5" function="internal">
        <lane id=":gneJ2_5_0" index="0" speed="13.89" length="9.03" shape="-210.40,395.20 -207.95,394.85 -206.20,393.80 -205.15,392.05 -204.80,389.60"/>
    </edge>
    <edge id=":gneJ2_6" function="internal">
        <lane id=":gneJ2_6_0" index="0" speed="13.89" length="20.80" shape="-210.40,395.20 -189.60,395.20"/>
        <lane id=":gneJ2_6_1" index="1" speed="13.89" length="20.80" shape="-210.40,398.40 -189.60,398.40"/>
    </edge>
    <edge id=":gneJ20_0" function="internal">
        <lane id=":gneJ20_0_0" index="0" speed="13.89" length="9.03" shape="-4.80,-389.60 -5.15,-392.05 -6.20,-393.80 -7.95,-394.85 -10.40,-395.20"/>
    </edge>
    <edge id=":gneJ20_1" function="internal">
        <lane id=":gneJ20_1_0" index="0" speed="13.89" length="19.35" shape="-1.60,-389.60 -0.85,-394.85 1.40,-398.60 5.15,-400.85 10.40,-401.60"/>
    </edge>
    <edge id=":gneJ20_2" function="internal">
        <lane id=":gneJ20_2_0" index="0" speed="13.89" length="9.03" shape="10.40,-395.20 7.95,-394.85 6.20,-393.80 5.15,-392.05 4.80,-389.60"/>
    </edge>
    <edge id=":gneJ20_3" function="internal">
        <lane id=":gneJ20_3_0" index="0" speed="13.89" length="20.80" shape="10.40,-395.20 -10.40,-395.20"/>
        <lane id=":gneJ20_3_1" index="1" speed="13.89" length="20.80" shape="10.40,-398.40 -10.40,-398.40"/>
    </edge>
    <edge id=":gneJ20_5" function="internal">
        <lane id=":gneJ20_5_0" index="0" speed="13.89" length="20.80" shape="-10.40,-404.80 10.40,-404.80"/>
        <lane id=":gneJ20_5_1" index="1" speed="13.89" length="20.80" shape="-10.40,-401.60 10.40,-401.60"/>
    </edge>
    <edge id=":gneJ20_7" function="internal">
        <lane id=":gneJ20_7_0" index="0" speed="13.89" length="6.96" shape="-10.40,-401.60 -5.15,-400.85 -3.73,-400.00"/>
    </edge>
    <edge id=":gneJ20_8" function="internal">
        <lane id=":gneJ20_8_0" index="0" speed="13.89" length="12.40" shape="-3.73,-400.00 -1.40,-398.60 0.85,-394.85 1.60,-389.60"/>
    </edge>
    <edge id=":gneJ21_0" function="internal">
        <lane id=":gneJ21_0_0" index="0" speed="13.89" length="9.03" shape="-104.80,-389.60 -105.15,-392.05 -106.20,-393.80 -107.95,-394.85 -110.40,-395.20"/>
    </edge>
    <edge id=":gneJ21_1" function="internal">
        <lane id=":gneJ21_1_0" index="0" speed="13.89" length="19.35" shape="-101.60,-389.60 -100.85,-394.85 -98.60,-398.60 -94.85,-400.85 -89.60,-401.60"/>
    </edge>
    <edge id=":gneJ21_2" function="internal">
        <lane id=":gneJ21_2_0" index="0" speed="13.89" length="9.03" shape="-89.60,-395.20 -92.05,-394.85 -93.80,-393.80 -94.85,-392.05 -95.20,-389.60"/>
    </edge>
    <edge id=":gneJ21_3" function="internal">
        <lane id=":gneJ21_3_0" index="0" speed="13.89" length="20.80" shape="-89.60,-395.20 -110.40,-395.20"/>
        <lane id=":gneJ21_3_1" index="1" speed="13.89" length="20.80" shape="-89.60,-398.40 -110.40,-398.40"/>
    </edge>
    <edge id=":gneJ21_5" function="internal">
        <lane id=":gneJ21_5_0" index="0" speed="13.89" length="20.80" shape="-110.40,-404.80 -89.60,-404.80"/>
        <lane id=":gneJ21_5_1" index="1" speed="13.89" length="20.80" shape="-110.40,-401.60 -89.60,-401.60"/>
    </edge>
    <edge id=":gneJ21_7" function="internal">
        <lane id=":gneJ21_7_0" index="0" speed="13.89" length="6.96" shape="-110.40,-401.60 -105.15,-400.85 -103.73,-400.00"/>
    </edge>
    <edge id=":gneJ21_8" function="internal">
        <lane id=":gneJ21_8_0" index="0" speed="13.89" length="12.40" shape="-103.73,-400.00 -101.40,-398.60 -99.15,-394.85 -98.40,-389.60"/>
    </edge>
    <edge id=":gneJ22_0" function="internal">
        <lane id=":gneJ22_0_0" index="0" speed="13.89" length="9.03" shape="-204.80,-389.60 -205.15,-392.05 -206.20,-393.80 -207.95,-394.85 -210.40,-395.20"/>
    </edge>
    <edge id=":gneJ22_1" function="internal">
        <lane id=":gneJ22_1_0" index="0" speed="13.89" length="19.35" shape="-201.60,-389.60 -200.85,-394.85 -198.60,-398.60 -194.85,-400.85 -189.60,-401.60"/>
    </edge>
    <edge id=":gneJ22_2" function="internal">
        <lane id=":gneJ22_2_0" index="0" speed="13.89" length="9.03" shape="-189.60,-395.20 -192.05,-394.85 -193.80,-393.80 -194.85,-392.05 -195.20,-389.60"/>
    </edge>
    <edge id=":gneJ22_3" function="internal">
        <lane id=":gneJ22_3_0" index="0" speed="13.89" length="20.80" shape="-189.60,-395.20 -210.40,-395.20"/>
        <lane id=":gneJ22_3_1" index="1" speed="13.89" length="20.80" shape="-189.60,-398.40 -210.40,-398.40"/>
    </edge>
    <edge id=":gneJ22_5" function="internal">
        <lane id=":gneJ22_5_0" index="0" speed="13.89" length="20.80" shape="-210.40,-404.80 -189.60,-404.80"/>
        <lane id=":gneJ22_5_1" index="1" speed="13.89" length="20.80" shape="-210.40,-401.60 -189.60,-401.60"/>
    </edge>
    <edge id=":gneJ22_7" function="internal">
        <lane id=":gneJ22_7_0" index="0" speed="13.89" length="6.96" shape="-210.40,-401.60 -205.15,-400.85 -203.73,-400.00"/>
    </edge>
    <edge id=":gneJ22_8" function="internal">
        <lane id=":gneJ22_8_0" index="0" speed="13.89" length="12.40" shape="-203.73,-400.00 -201.40,-398.60 -199.15,-394.85 -198.40,-389.60"/>
    </edge>
    <edge id=":gneJ23_0" function="internal">
        <lane id=":gneJ23_0_0" index="0" speed="13.89" length="9.03" shape="-304.80,-389.60 -305.15,-392.05 -306.20,-393.80 -307.95,-394.85 -310.40,-395.20"/>
    </edge>
    <edge id=":gneJ23_1" function="internal">
        <lane id=":gneJ23_1_0" index="0" speed="13.89" length="19.35" shape="-301.60,-389.60 -300.85,-394.85 -298.60,-398.60 -294.85,-400.85 -289.60,-401.60"/>
    </edge>
    <edge id=":gneJ23_2" function="internal">
        <lane id=":gneJ23_2_0" index="0" speed="13.89" length="9.03" shape="-289.60,-395.20 -292.05,-394.85 -293.80,-393.80 -294.85,-392.05 -295.20,-389.60"/>
    </edge>
    <edge id=":gneJ23_3" function="internal">
        <lane id=":gneJ23_3_0" index="0" speed="13.89" length="20.80" shape="-289.60,-395.20 -310.40,-395.20"/>
        <lane id=":gneJ23_3_1" index="1" speed="13.89" length="20.80" shape="-289.60,-398.40 -310.40,-398.40"/>
    </edge>
    <edge id=":gneJ23_5" function="internal">
        <lane id=":gneJ23_5_0" index="0" speed="13.89" length="20.80" shape="-310.40,-404.80 -289.60,-404.80"/>
        <lane id=":gneJ23_5_1" index="1" speed="13.89" length="20.80" shape="-310.40,-401.60 -289.60,-401.60"/>
    </edge>
    <edge id=":gneJ23_7" function="internal">
        <lane id=":gneJ23_7_0" index="0" speed="13.89" length="6.96" shape="-310.40,-401.60 -305.15,-400.85 -303.73,-400.00"/>
    </edge>
    <edge id=":gneJ23_8" function="internal">
        <lane id=":gneJ23_8_0" index="0" speed="13.89" length="12.40" shape="-303.73,-400.00 -301.40,-398.60 -299.15,-394.85 -298.40,-389.60"/>
    </edge>
    <edge id=":gneJ24_0" function="internal">
        <lane id=":gneJ24_0_0" index="0" speed="8.96" length="18.06" shape="-404.80,-393.60 -404.10,-398.50 -402.00,-402.00 -398.50,-404.10 -393.60,-404.80"/>
    </edge>
    <edge id=":gneJ24_1" function="internal">
        <lane id=":gneJ24_1_0" index="0" speed="7.66" length="12.90" shape="-401.60,-393.60 -401.10,-397.10 -399.60,-399.60 -397.10,-401.10 -393.60,-401.60"/>
    </edge>
    <edge id=":gneJ24_2" function="internal">
        <lane id=":gneJ24_2_0" index="0" speed="3.90" length="2.58" shape="-393.60,-395.20 -394.30,-395.10 -394.80,-394.80 -395.10,-394.30 -395.20,-393.60"/>
    </edge>
    <edge id=":gneJ24_3" function="internal">
        <lane id=":gneJ24_3_0" index="0" speed="6.08" length="7.74" shape="-393.60,-398.40 -395.70,-398.10 -397.20,-397.20 -398.10,-395.70 -398.40,-393.60"/>
    </edge>
    <edge id=":gneJ25_0" function="internal">
        <lane id=":gneJ25_0_0" index="0" speed="13.89" length="20.80" shape="-404.80,-289.60 -404.80,-310.40"/>
        <lane id=":gneJ25_0_1" index="1" speed="13.89" length="20.80" shape="-401.60,-289.60 -401.60,-310.40"/>
    </edge>
    <edge id=":gneJ25_2" function="internal">
        <lane id=":gneJ25_2_0" index="0" speed="13.89" length="6.96" shape="-401.60,-289.60 -400.85,-294.85 -400.00,-296.27"/>
    </edge>
    <edge id=":gneJ25_8" function="internal">
        <lane id=":gneJ25_8_0" index="0" speed="13.89" length="12.40" shape="-400.00,-296.27 -398.60,-298.60 -394.85,-300.85 -389.60,-301.60"/>
    </edge>
    <edge id=":gneJ25_3" function="internal">
        <lane id=":gneJ25_3_0" index="0" speed="13.89" length="9.03" shape="-389.60,-295.20 -392.05,-294.85 -393.80,-293.80 -394.85,-292.05 -395.20,-289.60"/>
    </edge>
    <edge id=":gneJ25_4" function="internal">
        <lane id=":gneJ25_4_0" index="0" speed="13.89" length="19.35" shape="-389.60,-298.40 -394.85,-299.15 -398.60,-301.40 -400.85,-305.15 -401.60,-310.40"/>
    </edge>
    <edge id=":gneJ25_5" function="internal">
        <lane id=":gneJ25_5_0" index="0" speed="13.89" length="9.03" shape="-395.20,-310.40 -394.85,-307.95 -393.80,-306.20 -392.05,-305.15 -389.60,-304.80"/>
    </edge>
    <edge id=":gneJ25_6" function="internal">
        <lane id=":gneJ25_6_0" index="0" speed="13.89" length="20.80" shape="-395.20,-310.40 -395.20,-289.60"/>
        <lane id=":gneJ25_6_1" index="1" speed="13.89" length="20.80" shape="-398.40,-310.40 -398.40,-289.60"/>
    </edge>
    <edge id=":gneJ26_0" function="internal">
        <lane id=":gneJ26_0_0" index="0" speed="13.89" length="20.80" shape="-404.80,-189.60 -404.80,-210.40"/>
        <lane id=":gneJ26_0_1" index="1" speed="13.89" length="20.80" shape="-401.60,-189.60 -401.60,-210.40"/>
    </edge>
    <edge id=":gneJ26_2" function="internal">
        <lane id=":gneJ26_2_0" index="0" speed="13.89" length="6.96" shape="-401.60,-189.60 -400.85,-194.85 -400.00,-196.27"/>
    </edge>
    <edge id=":gneJ26_8" function="internal">
        <lane id=":gneJ26_8_0" index="0" speed="13.89" length="12.40" shape="-400.00,-196.27 -398.60,-198.60 -394.85,-200.85 -389.60,-201.60"/>
    </edge>
    <edge id=":gneJ26_3" function="internal">
        <lane id=":gneJ26_3_0" index="0" speed="13.89" length="9.03" shape="-389.60,-195.20 -392.05,-194.85 -393.80,-193.80 -394.85,-192.05 -395.20,-189.60"/>
    </edge>
    <edge id=":gneJ26_4" function="internal">