<?xml version="1.0" encoding="UTF-8"?>



<additional xmlns:xsi="http://www.w3.org/2001/XMLSchema-instance" xsi:noNamespaceSchemaLocation="http://sumo.dlr.de/xsd/additional_file.xsd">
    <poly id="poly_0" color="red"  type="building"  fill="0" layer="128.00" shape="-391.160000,308.400000 -391.300000,391.970000 -308.610000,391.680000 -308.460000,308.400000 -391.160000,308.400000"/>
    <poly id="poly_1" color="red"  type="building"  fill="0" layer="128.00" shape="-290.930000,308.640000 -290.930000,391.360000 -208.630000,391.360000 -208.630000,308.640000 -290.930000,308.640000"/>
    <poly id="poly_10" color="red"  type="building"  fill="0" layer="128.00" shape="-191.010000,210.200000 -191.010000,291.290000 -109.470000,291.290000 -109.470000,210.200000 -191.010000,210.200000"/>
    <poly id="poly_11" color="red"  type="building"  fill="0" layer="128.00" shape="-91.350000,210.200000 -91.350000,289.480000 -9.810000,289.480000 -9.810000,210.200000 -91.350000,210.200000"/>
    <poly id="poly_12" color="red"  type="building"  fill="0" layer="128.00" shape="8.310000,209.300000 8.310000,291.290000 90.750000,291.290000 90.750000,209.300000 8.310000,209.300000"/>
    <poly id="poly_13" color="red"  type="building"  fill="0" layer="128.00" shape="107.960000,209.300000 107.960000,290.380000 190.860000,290.380000 190.860000,209.300000 107.960000,209.300000"/>
    <poly id="poly_14" color="red"  type="building"  fill="0" layer="128.00" shape="208.070000,208.390000 208.070000,290.380000 290.060000,290.380000 290.060000,208.390000 208.070000,208.390000"/>
    <poly id="poly_15" color="red"  type="building"  fill="0" layer="128.00" shape="307.880000,209.100000 307.880000,290.670000 391.530000,290.670000 391.530000,209.100000 307.880000,209.100000"/>
    <poly id="poly_16" color="red"  type="building"  fill="0" layer="128.00" shape="-390.900000,109.430000 -390.900000,190.070000 -310.260000,190.070000 -310.260000,109.430000 -390.900000,109.430000"/>
    <poly id="poly_17" color="red"  type="building"  fill="0" layer="128.00" shape="-290.910000,109.970000 -290.910000,188.990000 -209.730000,188.990000 -209.730000,109.970000 -290.910000,109.970000"/>
    <poly id="poly_18" color="red"  type="building"  fill="0" layer="128.00" shape="-191.990000,110.510000 -191.990000,190.070000 -109.200000,190.070000 -109.200000,110.510000 -191.990000,110.510000"/>
    <poly id="poly_19" color="red"  type="building"  fill="0" layer="128.00" shape="-91.460000,109.430000 -91.460000,189.530000 -9.740000,189.530000 -9.740000,109.430000 -91.460000,109.430000"/>
    <poly id="poly_2" color="red"  type="building"  fill="0" layer="128.00" shape="-190.260000,310.270000 -190.260000,390.580000 -108.980000,390.580000 -108.980000,310.270000 -190.260000,310.270000"/>
    <poly id="poly_20" color="red"  type="building"  fill="0" layer="128.00" shape="8.000000,109.970000 8.000000,190.610000 89.710000,190.610000 89.710000,109.970000 8.000000,109.970000"/>
    <poly id="poly_21" color="red"  type="building"  fill="0" layer="128.00" shape="109.060000,108.890000 109.060000,189.530000 190.780000,189.530000 190.780000,108.890000 109.060000,108.890000"/>
    <poly id="poly_22" color="red"  type="building"  fill="0" layer="128.00" shape="209.060000,108.350000 209.060000,190.070000 290.230000,190.070000 290.230000,108.350000 209.060000,108.350000"/>
    <poly id="poly_23" color="red"  type="building"  fill="0" layer="128.00" shape="309.050000,109.970000 309.050000,192.220000 388.610000,192.220000 388.610000,109.970000 309.050000,109.970000"/>
    <poly id="poly_24" color="red"  type="building"  fill="0" layer="128.00" shape="-390.360000,9.980000 -390.360000,90.080000 -309.720000,90.080000 -309.720000,9.980000 -390.360000,9.980000"/>
    <poly id="poly_25" color="red"  type="building"  fill="0" layer="128.00" shape="-290.370000,8.900000 -290.370000,89.540000 -210.800000,89.540000 -210.800000,8.900000 -290.370000,8.900000"/>
    <poly id="poly_26" color="red"  type="building"  fill="0" layer="128.00" shape="-190.910000,8.900000 -190.910000,90.080000 -110.270000,90.080000 -110.270000,8.900000 -190.910000,8.900000"/>
    <poly id="poly_27" color="red"  type="building"  fill="0" layer="128.00" shape="-90.920000,8.900000 -90.920000,91.150000 -10.280000,91.150000 -10.280000,8.900000 -90.920000,8.900000"/>
    <poly id="poly_28" color="red"  type="building"  fill="0" layer="128.00" shape="9.360000,9.350000 9.360000,90.130000 90.870000,90.130000 90.870000,9.350000 9.360000,9.350000"/>
    <poly id="poly_29" color="red"  type="building"  fill="0" layer="128.00" shape="109.600000,9.350000 109.600000,90.130000 190.750000,90.130000 190.750000,9.350000 109.600000,9.350000"/>
    <poly id="poly_3" color="red"  type="building"  fill="0" layer="128.00" shape="-90.510000,309.590000 -90.070000,390.390000 -9.250000,390.710000 -9.260000,309.590000 -90.510000,309.590000"/>
    <poly id="poly_30" color="red"  type="building"  fill="0" layer="128.00" shape="208.740000,7.880000 208.740000,90.500000 290.620000,90.500000 290.620000,7.880000 208.740000,7.880000"/>
    <poly id="poly_31" color="red"  type="building"  fill="0" layer="128.00" shape="308.610000,9.720000 308.610000,90.500000 389.760000,90.500000 389.760000,9.720000 308.610000,9.720000"/>
    <poly id="poly_32" color="red"  type="building"  fill="0" layer="128.00" shape="-390.990000,-90.910000 -390.990000,-9.740000 -309.820000,-9.740000 -309.820000,-90.910000 -390.990000,-90.910000"/>
    <poly id="poly_33" color="red"  type="building"  fill="0" layer="128.00" shape="-290.460000,-89.840000 -290.460000,-10.280000 -209.290000,-10.280000 -209.290000,-89.840000 -290.460000,-89.840000"/>
    <poly id="poly_34" color="red"  type="building"  fill="0" layer="128.00" shape="-189.930000,-90.910000 -189.930000,-9.740000 -111.440000,-9.740000 -111.440000,-90.910000 -189.930000,-90.910000"/>
    <poly id="poly_35" color="red"  type="building"  fill="0" layer="128.00" shape="-91.020000,-90.910000 -91.020000,-10.810000 -9.300000,-10.810000 -9.300000,-90.910000 -91.020000,-90.910000"/>
    <poly id="poly_36" color="red"  type="building"  fill="0" layer="128.00" shape="9.510000,-90.380000 9.510000,-9.740000 88.540000,-9.740000 88.540000,-90.380000 9.510000,-90.380000"/>
    <poly id="poly_37" color="red"  type="building"  fill="0" layer="128.00" shape="108.350000,-90.360000 108.350000,-9.980000 190.750000,-9.980000 190.750000,-90.360000 108.350000,-90.360000"/>
    <poly id="poly_38" color="red"  type="building"  fill="0" layer="128.00" shape="208.520000,-90.360000 208.520000,-10.390000 290.110000,-10.390000 290.110000,-90.360000 208.520000,-90.360000"/>
    <poly id="poly_39" color="red"  type="building"  fill="0" layer="128.00" shape="309.610000,-90.360000 309.610000,-10.790000 391.080000,-10.790000 391.080000,-90.360000 309.610000,-90.360000"/>
    <poly id="poly_4" color="red"  type="building"  fill="0" layer="128.00" shape="9.490000,310.090000 9.490000,390.120000 90.290000,390.120000 90.290000,310.090000 9.490000,310.090000"/>
    <poly id="poly_40" color="red"  type="building"  fill="0" layer="128.00" shape="-391.280000,-191.540000 -391.280000,-110.030000 -309.770000,-110.030000 -309.770000,-191.540000 -391.280000,-191.540000"/>
    <poly id="poly_41" color="red"  type="building"  fill="0" layer="128.00" shape="-291.410000,-190.440000 -291.410000,-110.390000 -209.160000,-110.390000 -209.160000,-190.440000 -291.410000,-190.440000"/>
    <poly id="poly_42" color="red"  type="building"  fill="0" layer="128.00" shape="-191.170000,-190.810000 -191.170000,-109.290000 -109.650000,-109.290000 -109.650000,-190.810000 -191.170000,-190.810000"/>
    <poly id="poly_43" color="red"  type="building"  fill="0" layer="128.00" shape="-90.560000,-190.440000 -90.560000,-110.760000 -9.410000,-110.760000 -9.410000,-190.440000 -90.560000,-190.440000"/>
    <poly id="poly_44" color="red"  type="building"  fill="0" layer="128.00" shape="8.580000,-190.440000 8.580000,-110.390000 89.360000,-110.390000 89.360000,-190.440000 8.580000,-190.440000"/>
    <poly id="poly_45" color="red"  type="building"  fill="0" layer="128.00" shape="109.190000,-190.440000 109.190000,-111.490000 189.240000,-111.490000 189.240000,-190.440000 109.190000,-190.440000"/>
    <poly id="poly_46" color="red"  type="building"  fill="0" layer="128.00" shape="210.170000,-190.440000 210.170000,-111.490000 289.850000,-111.490000 289.850000,-190.440000 210.170000,-190.440000"/>
    <poly id="poly_47" color="red"  type="building"  fill="0" layer="128.00" shape="309.670000,-188.970000 309.670000,-110.030000 389.350000,-110.030000 389.350000,-188.970000 309.670000,-188.970000"/>
    <poly id="poly_48" color="red"  type="building"  fill="0" layer="128.00" shape="-389.840000,-292.220000 -389.840000,-211.260000 -310.630000,-211.260000 -310.630000,-292.220000 -389.840000,-292.220000"/>
    <poly id="poly_49" color="red"  type="building"  fill="0" layer="128.00" shape="-290.650000,-290.820000 -290.650000,-209.160000 -208.980000,-209.160000 -208.980000,-290.820000 -290.650000,-290.820000"/>
    <poly id="poly_5" color="red"  type="building"  fill="0" layer="128.00" shape="109.980000,310.160000 109.980000,390.630000 190.530000,390.630000 190.530000,310.160000 109.980000,310.160000"/>
    <poly id="poly_50" color="red"  type="building"  fill="0" layer="128.00" shape="-391.240000,-392.460000 -391.240000,-308.700000 -308.520000,-308.700000 -308.520000,-392.460000 -391.240000,-392.460000"/>
    <poly id="poly_51" color="red"  type="building"  fill="0" layer="128.00" shape="-291.350000,-390.010000 -291.350000,-310.100000 -209.340000,-310.100000 -209.340000,-390.010000 -291.350000,-390.010000"/>
    <poly id="poly_52" color="red"  type="building"  fill="0" layer="128.00" shape="-190.760000,-290.470000 -190.760000,-208.100000 -109.790000,-208.100000 -109.790000,-290.470000 -190.760000,-290.470000"/>
    <poly id="poly_53" color="red"  type="building"  fill="0" layer="128.00" shape="-191.810000,-391.760000 -191.810000,-309.050000 -110.150000,-309.050000 -110.150000,-391.760000 -191.810000,-391.760000"/>
    <poly id="poly_54" color="red"  type="building"  fill="0" layer="128.00" shape="-91.220000,-291.170000 -91.220000,-209.160000 -9.200000,-209.160000 -9.200000,-291.170000 -91.220000,-291.170000"/>
    <poly id="poly_55" color="red"  type="building"  fill="0" layer="128.00" shape="-90.870000,-390.360000 -90.870000,-309.750000 -8.850000,-309.750000 -8.850000,-390.360000 -90.870000,-390.360000"/>
    <poly id="poly_56" color="red"  type="building"  fill="0" layer="128.00" shape="8.320000,-292.220000 8.320000,-210.210000 90.690000,-210.210000 90.690000,-292.220000 8.320000,-292.220000"/>
    <poly id="poly_57" color="red"  type="building"  fill="0" layer="128.00" shape="9.020000,-391.060000 9.020000,-309.050000 89.990000,-309.050000 89.990000,-391.060000 9.020000,-391.060000"/>
    <poly id="poly_58" color="red"  type="building"  fill="0" layer="128.00" shape="107.860000,-290.820000 107.860000,-209.160000 191.630000,-209.160000 191.630000,-290.820000 107.860000,-290.820000"/>
    <poly id="poly_59" color="red"  type="building"  fill="0" layer="128.00" shape="108.560000,-390.360000 108.560000,-309.400000 189.530000,-309.400000 189.530000,-390.360000 108.560000,-390.360000"/>
    <poly id="poly_6" color="red"  type="building"  fill="0" layer="128.00" shape="210.070000,309.850000 210.070000,390.930000 290.770000,390.930000 290.770000,309.850000 210.070000,309.850000"/>
    <poly id="poly_60" color="red"  type="building"  fill="0" layer="128.00" shape="208.450000,-290.470000 208.450000,-208.450000 291.170000,-208.450000 291.170000,-290.470000 208.450000,-290.470000"/>
    <poly id="poly_61" color="red"  type="building"  fill="0" layer="128.00" shape="208.450000,-390.710000 208.450000,-308.700000 292.220000,-308.700000 292.220000,-390.710000 208.450000,-390.710000"/>
    <poly id="poly_62" color="red"  type="building"  fill="0" layer="128.00" shape="307.990000,-291.520000 307.990000,-208.100000 391.760000,-208.100000 391.760000,-291.520000 307.990000,-291.520000"/>
    <poly id="poly_63" color="red"  type="building"  fill="0" layer="128.00" shape="308.690000,-390.710000 308.690000,-308.460000 390.940000,-308.460000 390.940000,-390.710000 308.690000,-390.710000"/>
    <poly id="poly_7" color="red"  type="building"  fill="0" layer="128.00" shape="309.650000,310.440000 309.650000,390.550000 390.890000,390.550000 390.890000,310.440000 309.650000,310.440000"/>
    <poly id="poly_8" color="red"  type="building"  fill="0" layer="128.00" shape="-391.220000,209.750000 -391.220000,289.480000 -309.690000,289.480000 -309.690000,209.750000 -391.220000,209.750000"/>
    <poly id="poly_9" color="red"  type="building"  fill="0" layer="128.00" shape="-291.110000,209.750000 -291.110000,290.380000 -209.580000,290.380000 -209.580000,209.750000 -291.110000,209.750000"/>
</additional>
