<?xml version="1.0" encoding="UTF-8"?>



<additional xmlns:xsi="http://www.w3.org/2001/XMLSchema-instance" xsi:noNamespaceSchemaLocation="http://sumo.dlr.de/xsd/additional_file.xsd">
    <location netOffset="-260847.15,-2670559.84" convBoundary="-0.00,-1.54,4530.45,4874.30" origBoundary="120.556503,24.129496,120.691040,24.241527" projParameter="+proj=utm +zone=51 +ellps=WGS84 +datum=WGS84 +units=m +no_defs"/>

    <poly id="120262762" type="building" color="237,199,199" fill="1" layer="-1.00" shape="2602.915704,1353.893813 2628.098583,1379.947126 2633.768364,1385.814329 2654.212471,1406.960108 2679.891577,1433.514962 2705.084528,1459.579299 2743.354575,1499.155440 2531.124129,1703.401235 2507.766959,1702.116572 2485.360810,1682.820909 2391.492876,1571.879480 2517.072263,1442.405267 2531.367538,1427.651666 2552.821040,1405.543284 2571.705176,1386.070569 2576.783603,1380.833557 2602.915704,1353.893813"/>
    <poly id="139029007" type="building" color="237,199,199" fill="1" layer="-1.00" shape="2607.797893,887.887998 2718.270265,777.715419 2726.324925,781.448787 2857.391644,913.836612 2857.655004,921.123377 2749.458260,1025.029703 2742.518498,1025.964977 2681.246308,963.157846 2607.797893,887.887998"/>
    <poly id="202795278" type="building" color="237,199,199" fill="1" layer="-1.00" shape="3146.396561,795.030849 3002.198756,655.589464 3070.041525,587.946221 3210.594697,730.207807 3146.396561,795.030849"/>
    <poly id="202795280" type="building" color="237,199,199" fill="1" layer="-1.00" shape="3236.290595,892.723904 3152.965190,809.725774 3211.618643,751.487990 3287.840862,827.412797 3260.609883,854.446823 3267.712998,861.520470 3236.290595,892.723904"/>
    <poly id="217916876" type="building" color="237,199,199" fill="1" layer="-1.00" shape="1068.452161,3485.661411 1125.861589,3656.066563 1260.425398,3575.626785 1166.867058,3427.899585 1163.238610,3427.361962 1068.452161,3485.661411"/>
    <poly id="219177977" type="building" color="184,184,179" fill="1" layer="-1.00" shape="3499.570482,1912.042327 3476.908612,1890.090130 3568.702395,1800.954304 3626.381392,1779.233913 3634.352439,1782.880458 3639.295008,1795.220101 3635.166135,1803.776286 3582.766966,1828.722345 3499.570482,1912.042327"/>
    <poly id="219177978" type="building" color="184,184,179" fill="1" layer="-1.00" shape="3479.340375,1924.555214 3463.825872,1908.700903 3390.977756,1975.240154 3390.566394,1988.455205 3399.406041,1997.272999 3412.376734,1997.678538 3479.340375,1924.555214"/>
    <poly id="219414222" type="building" color="194,194,130" fill="1" layer="-3.00" shape="2318.247943,3048.631689 2318.447299,3073.416185 2322.578647,3259.161831 2200.467336,3260.055323 2054.707519,3263.394216 2017.193295,3259.864614 1989.428186,3255.053297 1945.258712,3241.418355 1893.870050,3216.180466 1858.726368,3179.867738 1836.830860,3144.807682 1805.262356,3097.332346 1972.797960,2970.630259 2034.158593,2919.499172 2054.475215,2904.400671 2108.990489,2857.949426 2218.588277,2963.761926 2318.247943,3048.631689"/>
    <poly id="219414222#1" type="building" color="207,245,201" fill="1" layer="-2.00" shape="2318.247943,3048.631689 2318.447299,3073.416185 2322.578647,3259.161831 2200.467336,3260.055323 2054.707519,3263.394216 2017.193295,3259.864614 1989.428186,3255.053297 1945.258712,3241.418355 1893.870050,3216.180466 1858.726368,3179.867738 1836.830860,3144.807682 1805.262356,3097.332346 1972.797960,2970.630259 2034.158593,2919.499172 2054.475215,2904.400671 2108.990489,2857.949426 2218.588277,2963.761926 2318.247943,3048.631689"/>
    <poly id="219414231" type="building" color="237,199,199" fill="1" layer="-1.00" shape="2601.417143,2866.148043 2763.538633,2863.972552 2759.897255,2721.390052 2755.357518,2716.191068 2741.908559,2715.727656 2730.391403,2712.207080 2719.268986,2705.521922 2712.254650,2696.419334 2706.238126,2686.790440 2702.791325,2678.226897 2692.121419,2672.465019 2596.424903,2674.854521 2601.417143,2866.148043"/>
    <poly id="219414235" type="building" color="207,245,201" fill="1" layer="-2.00" shape="2601.417143,2866.148043 2596.424903,2674.854521 2471.164798,2675.609203 2463.722745,2682.968848 2470.155563,2867.855972 2601.417143,2866.148043"/>
    <poly id="219476253" type="building.greenhouse" color="255,230,230" fill="1" layer="-1.00" shape="2273.678687,3187.363836 2269.156309,3179.549635 2262.306646,3173.624713 2253.893296,3170.263363 2244.827157,3169.827155 2236.125770,3172.365620 2228.729983,3177.597139 2223.711150,3183.309847 2220.932077,3193.472969 2221.293593,3202.353778 2224.522541,3210.643837 2230.268541,3217.451439 2237.919718,3222.055448 2246.654259,3223.948763 2255.543902,3222.947401 2263.624343,3219.144995 2270.038087,3212.943663 2274.095065,3205.030831 2275.371870,3196.233535 2273.678687,3187.363836"/>
    <poly id="219476254" type="building" color="255,230,230" fill="1" layer="-1.00" shape="1944.905417,3131.280489 1955.370227,3137.543867 1954.903598,3140.654293 1955.475022,3143.824966 1957.739633,3147.321977 1961.306010,3149.622698 1964.995464,3150.768958 1969.105533,3150.922004 1973.362890,3148.324542 1983.632704,3154.480383 1991.139867,3143.130239 1997.131806,3146.997230 1999.808162,3142.874830 2010.081846,3149.263323 2020.006622,3150.582610 2028.607827,3149.962669 2036.172657,3146.334946 2044.369719,3140.380784 2050.218302,3130.166424 2051.287974,3126.635955 2041.868649,3120.875873 2045.787667,3114.450102 2037.253551,3108.730664 2045.702385,3094.095999 2050.494758,3096.753045 2058.407983,3092.676293 2062.600142,3089.215641 2065.860898,3082.944907 2066.502407,3075.687333 2065.557898,3070.262386 2061.328439,3067.828645 2091.428615,3018.759360 2096.181082,3021.461411 2102.962303,3010.466954 2110.682384,2996.631233 2112.036184,2988.187219 2108.183035,2980.273252 2101.847514,2975.924382 2093.398479,2977.140096 2087.720043,2982.320885 2049.549157,2959.576801 2045.049788,2966.566285 2037.954125,2962.363088 2029.681706,2974.778635 2020.600657,2969.799657 2004.735221,2995.738616 1998.524228,2992.152291 1994.427962,2998.315088 1979.531771,2989.100522 1972.411136,3001.685271 1966.159848,2998.121793 1961.633736,3005.333373 1965.618917,3007.139554 1963.873414,3009.772675 1956.625831,3004.995848 1949.505214,3008.438903 1945.349649,3014.092987 1941.807647,3019.958452 1940.905985,3026.245262 1945.332484,3028.908381 1939.108764,3039.184450 1945.214601,3043.171414 1937.451638,3055.035566 1941.692584,3057.546647 1937.841231,3063.760784 1935.813902,3062.908141 1919.687421,3089.638320 1949.962387,3106.530120 1944.795974,3114.971288 1951.719914,3119.243785 1944.905417,3131.280489"/>
    <poly id="219476255" type="building" color="184,184,179" fill="1" layer="-1.00" shape="2202.009571,3134.206663 2243.341679,3071.531642 2202.226299,3044.725268 2201.135545,3046.383412 2164.349066,3104.229109 2161.850260,3108.027169 2202.009571,3134.206663"/>
    <poly id="219476256" type="building" color="184,184,179" fill="1" layer="-1.00" shape="1926.872756,3054.735602 1834.854527,3124.474035 1829.616136,3117.635935 1815.844753,3099.671039 1907.852726,3029.921582 1920.917337,3046.967562 1926.872756,3054.735602"/>
    <poly id="219484133" type="building" color="237,199,199" fill="1" layer="-1.00" shape="2023.393442,2528.203412 2032.826486,2529.276090 2192.924592,2410.280853 2154.975540,2367.975000 2138.644660,2360.557062 1932.191946,2366.160060 1933.489803,2401.297950 1936.253667,2417.042059 1939.321928,2428.481721 1943.707729,2439.666709 1950.515147,2450.955356 1957.649317,2459.279969 2023.393442,2528.203412"/>
    <poly id="219484139" type="building" color="194,194,130" fill="1" layer="-3.00" shape="1740.907906,2324.175374 1738.483508,2326.343372 1706.346739,2327.156916 1698.905016,2319.912388 1692.011246,2324.781185 1699.824578,2178.893004 1709.925363,2171.222625 1787.252567,2168.225425 1795.917253,2175.637965 1796.394245,2273.673445 1784.378664,2289.065843 1755.936421,2323.603156 1740.907906,2324.175374"/>
    <poly id="219484140" type="building" color="207,245,201" fill="1" layer="-2.00" shape="1765.566581,2769.524829 1768.622433,2770.471090 1802.348861,2751.048439 1803.415924,2747.362860 1772.698911,2698.565766 1742.468880,2650.935162 1736.712144,2648.992397 1711.588470,2664.836463 1709.530687,2671.297730 1736.000298,2721.451012 1765.566581,2769.524829"/>
    <poly id="219484141" type="building" color="207,245,201" fill="1" layer="-2.00" shape="1991.067423,2917.536312 1994.401918,2917.513934 2006.631649,2905.231818 2008.926610,2902.622783 2010.257433,2898.290135 1842.942644,2797.675097 1820.035365,2788.527889 1813.046408,2789.508854 1793.654943,2800.337209 1792.642996,2807.323967 1798.790012,2812.551251 1807.329001,2816.109721 1818.641952,2816.519252 1820.595588,2817.827427 1991.067423,2917.536312"/>
    <poly id="219484142" type="building" color="207,245,201" fill="1" layer="-2.00" shape="1737.001790,2638.327764 1712.201488,2652.227276 1705.018384,2651.327781 1701.542899,2645.346741 1697.848940,2637.851270 1693.617535,2629.832893 1689.969903,2619.023470 1687.722745,2606.229345 1686.457560,2367.280403 1692.243126,2360.590681 1716.331842,2360.676042 1721.848678,2367.731096 1725.403370,2599.516755 1727.208772,2610.822341 1731.140408,2619.765443 1737.900264,2631.852616 1737.001790,2638.327764"/>
    <poly id="219484487" type="building" color="237,199,199" fill="0" layer="-1.00" shape="1546.384410,1412.044148 1555.096231,1620.728686 1814.698970,1615.708226"/>
    <poly id="219484488" type="building" color="207,245,201" fill="0" layer="-2.00" shape="1546.384410,1412.044148 1812.010998,1411.311434 1814.698970,1615.708226 1895.411079,1616.123750 1892.736133,1453.900519 1897.805245,1426.778734 1904.556652,1403.584760"/>
    <poly id="219484489" type="building" color="184,184,179" fill="1" layer="-1.00" shape="1544.748588,1203.884170 1584.950446,1203.611786 1585.758905,1324.501567 1545.557387,1324.773978 1544.748588,1203.884170"/>
    <poly id="219484490" type="building" color="184,184,179" fill="1" layer="-1.00" shape="1867.853181,1313.610987 1891.418380,1289.516082 1947.000915,1343.295387 1923.435546,1367.379123 1867.853181,1313.610987"/>
    <poly id="219484629" type="building" color="207,245,201" fill="1" layer="-2.00" shape="1818.955465,2143.218750 1899.173159,2140.993925 1895.934902,2025.496848 1815.726904,2027.732545 1815.192491,2060.906461 1818.955465,2143.218750"/>
    <poly id="219484630" type="building" color="207,245,201" fill="1" layer="-2.00" shape="1816.163185,1881.424756 1893.813332,1880.018548 1891.756782,1767.083629 1814.106202,1768.500874 1816.163185,1881.424756"/>
    <poly id="219484631" type="building" color="207,245,201" fill="1" layer="-2.00" shape="1815.899725,1753.500720 1899.684489,1752.856570 1897.076998,1630.656194 1813.847282,1631.701019 1815.899725,1753.500720"/>
    <poly id="222118144" type="building" color="184,184,179" fill="1" layer="-1.00" shape="4040.758208,1911.042586 4021.707481,1868.829834 3999.067988,1878.932929 4003.817347,1889.447547 3984.478431,1898.077777 3998.779898,1929.775869 4040.758208,1911.042586"/>
    <poly id="222118146" type="building" color="255,230,230" fill="1" layer="-1.00" shape="3917.505197,2102.948046 3964.951075,2085.320761 3952.574109,2050.100463 3903.623620,2068.362102 3917.505197,2102.948046"/>
    <poly id="222118148" type="building" color="184,184,179" fill="1" layer="-1.00" shape="3991.393907,1815.744771 3831.543740,1822.477089 3825.664036,1854.276232 3818.655198,1859.001757 3824.017637,1870.303996 3837.568395,1865.204311 3894.001617,1863.450869 3904.540239,1859.431573 3904.197228,1847.913328 3921.469753,1846.519610 3928.435710,1853.340926 3939.909730,1854.237096 3944.962899,1862.829717 3975.938960,1854.505660 3990.745492,1844.177444 3991.393907,1815.744771"/>
    <poly id="222486149" type="building" color="237,199,199" fill="1" layer="-1.00" shape="2625.698534,1294.908783 2624.899689,1286.002035 2611.960509,1271.634836 2594.278668,1287.597036 2611.242359,1307.337975 2625.698534,1294.908783"/>
    <poly id="222486149#1" type="building" color="255,230,230" fill="1" layer="-1.00" shape="2625.698534,1294.908783 2624.899689,1286.002035 2611.960509,1271.634836 2594.278668,1287.597036 2611.242359,1307.337975 2625.698534,1294.908783"/>
    <poly id="223053791" type="building" color="255,230,230" fill="1" layer="-1.00" shape="3888.842195,2500.598681 3873.274670,2465.497719 3896.511546,2455.306868 3905.050358,2458.268208 3915.598022,2482.482344 3911.907503,2490.488254 3888.842195,2500.598681"/>
    <poly id="223053791#1" type="building" color="237,199,255" fill="1" layer="-1.00" shape="3888.842195,2500.598681 3873.274670,2465.497719 3896.511546,2455.306868 3905.050358,2458.268208 3915.598022,2482.482344 3911.907503,2490.488254 3888.842195,2500.598681"/>
    <poly id="223053792" type="building" color="255,230,230" fill="1" layer="-1.00" shape="3932.932366,2533.432757 3935.156708,2525.916493 3924.865968,2501.864308 3918.113866,2498.119916 3893.194939,2508.039385 3907.488235,2543.560347 3932.932366,2533.432757"/>
    <poly id="223053792#1" type="building" color="237,199,255" fill="1" layer="-1.00" shape="3932.932366,2533.432757 3935.156708,2525.916493 3924.865968,2501.864308 3918.113866,2498.119916 3893.194939,2508.039385 3907.488235,2543.560347 3932.932366,2533.432757"/>
    <poly id="223053794" type="building" color="255,230,230" fill="1" layer="-1.00" shape="3896.440318,2438.709159 3884.582777,2410.915474 3875.375882,2406.292011 3871.250321,2408.897746 3867.958157,2417.628403 3869.583552,2421.845420 3864.723657,2423.698739 3867.888913,2431.879331 3861.523648,2434.311593 3869.615088,2455.707522 3892.474347,2447.273665 3896.440318,2438.709159"/>
    <poly id="223053794#1" type="building" color="237,199,255" fill="1" layer="-1.00" shape="3896.440318,2438.709159 3884.582777,2410.915474 3875.375882,2406.292011 3871.250321,2408.897746 3867.958157,2417.628403 3869.583552,2421.845420 3864.723657,2423.698739 3867.888913,2431.879331 3861.523648,2434.311593 3869.615088,2455.707522 3892.474347,2447.273665 3896.440318,2438.709159"/>
    <poly id="223056023" type="building" color="255,230,230" fill="1" layer="-1.00" shape="3896.058905,764.744924 3901.711922,751.166291 3933.450659,764.226562 3955.299166,773.217537 3949.646111,786.796145 3896.058905,764.744924"/>
    <poly id="223056023#1" type="historic.yes" color="128,255,128" fill="1" layer="-1.00" shape="3896.058905,764.744924 3901.711922,751.166291 3933.450659,764.226562 3955.299166,773.217537 3949.646111,786.796145 3896.058905,764.744924"/>
    <poly id="225367813" type="building" color="237,199,199" fill="1" layer="-1.00" shape="3953.677164,1610.101409 3972.488883,1604.615725 3967.695207,1588.350968 3948.883468,1593.836657 3953.677164,1610.101409"/>
    <poly id="225367813#1" type="building" color="255,230,230" fill="1" layer="-1.00" shape="3953.677164,1610.101409 3972.488883,1604.615725 3967.695207,1588.350968 3948.883468,1593.836657 3953.677164,1610.101409"/>
    <poly id="228086341" type="building" color="255,230,230" fill="1" layer="-1.00" shape="3753.390235,2109.829667 3731.258261,2056.576444 3751.479636,2048.452019 3760.067549,2052.520555 3779.294065,2099.173473 3753.390235,2109.829667"/>
    <poly id="229903946" type="building" color="237,199,199" fill="1" layer="-1.00" shape="2632.957794,3280.610612 2878.115129,3275.802545 2878.164914,3385.845053 2854.696303,3385.636785 2636.063601,3388.452783 2632.957794,3280.610612"/>
    <poly id="238732244" type="building" color="255,230,230" fill="1" layer="-1.00" shape="2002.661802,2331.265751 2001.632180,2310.373367 2011.441297,2310.209802 2011.350971,2304.792775 2016.188206,2300.368427 2020.090364,2305.721895 2026.555284,2300.738530 2024.349108,2266.601998 2043.447873,2266.826532 2045.659433,2311.046538 2047.916166,2315.895564 2048.042677,2323.483831 2043.956692,2330.278024 2036.907977,2332.567390 2029.283210,2333.237480 2024.868176,2330.053327 2002.661802,2331.265751"/>
    <poly id="238732244#1" type="building" color="207,245,201" fill="1" layer="-2.00" shape="2002.661802,2331.265751 2001.632180,2310.373367 2011.441297,2310.209802 2011.350971,2304.792775 2016.188206,2300.368427 2020.090364,2305.721895 2026.555284,2300.738530 2024.349108,2266.601998 2043.447873,2266.826532 2045.659433,2311.046538 2047.916166,2315.895564 2048.042677,2323.483831 2043.956692,2330.278024 2036.907977,2332.567390 2029.283210,2333.237480 2024.868176,2330.053327 2002.661802,2331.265751"/>
    <poly id="238732566" type="building" color="255,230,230" fill="1" layer="-1.00" shape="1859.743326,2251.972697 1866.715921,2254.260908 1873.826387,2254.452540 1889.039787,2250.940960 1904.905046,2245.667749 1904.257088,2240.348668 1883.740167,2235.571584 1863.130269,2234.973561 1855.791176,2236.314905 1853.443267,2242.459631 1854.216920,2247.998231 1859.743326,2251.972697"/>
    <poly id="238733789" type="building" color="255,230,230" fill="1" layer="-1.00" shape="1742.890630,2431.981256 1817.088422,2431.030875 1816.159521,2358.921061 1741.961538,2359.882493 1742.890630,2431.981256"/>
    <poly id="238733789#1" type="building" color="237,199,255" fill="1" layer="-1.00" shape="1742.890630,2431.981256 1817.088422,2431.030875 1816.159521,2358.921061 1741.961538,2359.882493 1742.890630,2431.981256"/>
    <poly id="238906708" type="building" color="255,230,230" fill="1" layer="-1.00" shape="1567.424479,2888.208382 1631.190325,2848.426412 1602.354304,2802.700867 1559.347086,2829.526010 1568.339392,2843.780903 1547.570462,2856.738005 1567.424479,2888.208382"/>
    <poly id="238906708#1" type="building" color="237,199,255" fill="1" layer="-1.00" shape="1567.424479,2888.208382 1631.190325,2848.426412 1602.354304,2802.700867 1559.347086,2829.526010 1568.339392,2843.780903 1547.570462,2856.738005 1567.424479,2888.208382"/>
    <poly id="238907080" type="building" color="255,230,230" fill="1" layer="-1.00" shape="1091.632079,3308.343967 1068.898659,3273.143815 1136.673041,3230.056539 1158.792625,3265.643816 1091.632079,3308.343967"/>
    <poly id="238907080#1" type="building" color="207,245,201" fill="1" layer="-2.00" shape="1091.632079,3308.343967 1068.898659,3273.143815 1136.673041,3230.056539 1158.792625,3265.643816 1091.632079,3308.343967"/>
    <poly id="240137720" type="amenity.arts_centre" color="237,199,199" fill="1" layer="-1.00" shape="1608.005461,1267.739625 1609.188371,1334.936374 1636.370838,1334.460401 1636.838529,1361.866638 1712.287326,1360.596202 1712.021289,1344.045848 1734.101333,1343.699538 1734.251256,1353.902500 1747.375584,1353.716739 1747.460617,1360.640852 1763.523900,1360.472550 1763.682494,1376.681186 1815.950336,1376.208084 1815.827284,1361.516936 1839.536921,1361.331977 1839.386569,1340.735198 1845.680179,1340.696708 1845.542625,1314.160385 1817.927653,1314.310744 1817.981955,1324.880963 1786.828259,1325.023930 1786.759341,1308.093546 1758.086197,1308.206268 1727.802791,1299.569886 1727.645935,1249.952454 1723.538083,1249.965598 1715.243087,1250.115103 1715.515761,1265.845361 1608.005461,1267.739625"/>
    <poly id="240137720#1" type="building" color="255,230,230" fill="1" layer="-1.00" shape="1608.005461,1267.739625 1609.188371,1334.936374 1636.370838,1334.460401 1636.838529,1361.866638 1712.287326,1360.596202 1712.021289,1344.045848 1734.101333,1343.699538 1734.251256,1353.902500 1747.375584,1353.716739 1747.460617,1360.640852 1763.523900,1360.472550 1763.682494,1376.681186 1815.950336,1376.208084 1815.827284,1361.516936 1839.536921,1361.331977 1839.386569,1340.735198 1845.680179,1340.696708 1845.542625,1314.160385 1817.927653,1314.310744 1817.981955,1324.880963 1786.828259,1325.023930 1786.759341,1308.093546 1758.086197,1308.206268 1727.802791,1299.569886 1727.645935,1249.952454 1723.538083,1249.965598 1715.243087,1250.115103 1715.515761,1265.845361 1608.005461,1267.739625"/>
    <poly id="240137746" type="building" color="207,245,201" fill="1" layer="-2.00" shape="1756.824369,1146.646401 1780.004276,1146.381570 1779.132805,1070.370437 1755.952774,1070.635259 1756.824369,1146.646401"/>
    <poly id="240137747" type="building" color="207,245,201" fill="1" layer="-2.00" shape="1631.315844,1063.928100 1671.927108,1063.183770 1669.377130,925.014873 1628.765471,925.759176 1631.315844,1063.928100"/>
    <poly id="240137749" type="building" color="207,245,201" fill="1" layer="-2.00" shape="1628.374126,918.153162 1669.870056,917.383021 1665.876055,773.719981 1639.199527,774.109780 1627.004249,783.687723 1628.374126,918.153162"/>
    <poly id="240137752" type="building" color="207,245,201" fill="1" layer="-2.00" shape="1632.654232,1138.014521 1641.559661,1144.580864 1673.394333,1144.393012 1671.764893,1077.835364 1631.238502,1077.569924 1632.654232,1138.014521"/>
    <poly id="240137755" type="amenity.arts_centre" color="237,199,199" fill="1" layer="-1.00" shape="1907.461940,1290.600414 1942.095032,1325.935946 1964.085910,1304.382768 1972.814888,1313.800009 1982.285111,1304.855042 1969.850725,1292.142073 1981.897510,1281.602839 1962.078332,1262.032051 1966.931291,1257.308282 1938.154738,1229.875403 1899.347558,1271.089397 1912.574745,1285.606351 1907.461940,1290.600414"/>
    <poly id="240137755#1" type="building" color="255,230,230" fill="1" layer="-1.00" shape="1907.461940,1290.600414 1942.095032,1325.935946 1964.085910,1304.382768 1972.814888,1313.800009 1982.285111,1304.855042 1969.850725,1292.142073 1981.897510,1281.602839 1962.078332,1262.032051 1966.931291,1257.308282 1938.154738,1229.875403 1899.347558,1271.089397 1912.574745,1285.606351 1907.461940,1290.600414"/>
    <poly id="240137759" type="building" color="237,199,199" fill="1" layer="-1.00" shape="2129.866491,1015.934398 2204.622554,1091.435066 2297.173952,999.629941 2223.881888,924.104423 2129.866491,1015.934398"/>
    <poly id="241781936" type="building" color="184,184,179" fill="1" layer="-1.00" shape="2249.001080,2312.743951 2286.062569,2312.148795 2286.356900,2334.704447 2249.293255,2335.166674 2249.001080,2312.743951"/>
    <poly id="241781938" type="building" color="184,184,179" fill="1" layer="-1.00" shape="2345.586829,2268.950695 2345.314000,2247.680069 2319.473315,2248.021710 2319.746183,2269.292339 2345.586829,2268.950695"/>
    <poly id="241887218" type="building" color="237,199,199" fill="0" layer="-1.00" shape="3677.114682,2117.973413 3709.337062,2105.129302 3719.417153,2130.547797 3773.637873,2110.669122 3852.705386,2303.849265 3812.607447,2318.773614 3844.624121,2404.130360 3733.464191,2445.362023 3707.405737,2376.627617 3705.293898,2370.667915 3685.713661,2378.183482 3619.296858,2397.677322 3599.196503,2349.232906"/>
    <poly id="241887219" type="building" color="255,230,230" fill="1" layer="-1.00" shape="3698.241447,2309.486170 3742.766098,2292.338558 3736.054970,2275.108337 3727.780419,2278.292504 3716.163145,2248.456092 3696.593260,2255.993616 3707.828317,2284.850160 3691.148013,2291.276111 3698.241447,2309.486170"/>
    <poly id="241889483" type="building" color="255,230,230" fill="1" layer="-1.00" shape="3963.233869,2218.816070 3967.960971,2216.920666 3958.060875,2192.518489 3955.434683,2193.570262 3951.820262,2184.665755 3976.788805,2174.634825 3995.104114,2219.729564 3968.024751,2230.615346 3963.233869,2218.816070"/>
    <poly id="241889486" type="building" color="255,230,230" fill="1" layer="-1.00" shape="3987.395482,2254.683632 3980.610748,2237.288331 4009.101734,2226.301669 4015.876088,2243.686071 3987.395482,2254.683632"/>
    <poly id="241889492" type="building" color="255,230,230" fill="1" layer="-1.00" shape="4033.530583,2291.872199 4028.959552,2279.836579 4010.740498,2286.675405 4009.124934,2282.436051 4012.762646,2281.068385 4008.967509,2271.069868 4024.256190,2265.332154 4019.525713,2252.878105 4001.296644,2259.728187 3990.807854,2263.669051 4003.182213,2296.285445 4011.427770,2293.190567 4013.745344,2299.302031 4033.530583,2291.872199"/>
    <poly id="253356949" type="building.construction" color="255,230,230" fill="1" layer="-1.00" shape="3701.880497,757.518273 3734.468038,789.910956 3753.798086,769.590555 3760.215127,767.168546 3761.118939,760.948412 3759.146441,754.199660 3755.788814,747.318689 3748.776580,739.578474 3736.861707,731.143713 3730.002811,728.985636 3723.031838,729.887686 3720.532454,736.776899 3701.880497,757.518273"/>
    <poly id="256290462" type="building" color="237,199,199" fill="0" layer="-1.00" shape="550.357927,2851.674380 632.878907,2978.463293 638.171876,2978.817737 754.808802,2906.486429 689.754726,2799.604524"/>
    <poly id="256290464" type="building" color="237,199,199" fill="0" layer="-1.00" shape="550.357927,2851.674380 521.811568,2806.466618 519.647106,2682.340720 668.062716,2681.712389 670.549340,2748.134246 675.101572,2770.397100 678.214246,2779.575331 689.754726,2799.604524"/>
    <poly id="258878157" type="building" color="237,199,199" fill="1" layer="-1.00" shape="1743.618849,3377.389171 1665.257624,3248.109860 1635.794894,3199.513755 1771.288223,3115.872747 1775.686521,3122.935391 1783.867344,3124.538497 1789.990486,3122.253333 1812.641003,3151.372460 1809.904721,3162.255233 1824.711571,3184.391403 1828.642623,3190.265126 1845.275163,3199.960262 1860.097017,3215.691468 1878.591836,3232.801896 1893.533150,3242.902056 1919.095888,3257.080032 1918.783437,3266.991539 1838.622415,3321.561979 1748.485078,3377.773298 1743.618849,3377.389171"/>
    <poly id="260269826" type="building" color="207,245,201" fill="1" layer="-2.00" shape="3264.719557,1923.492158 3235.846715,1894.917301 3210.327537,1933.059431 3204.043419,1943.457684 3199.446239,1956.864082 3198.214622,1970.270054 3199.964203,1986.862151 3204.281920,2002.580590 3210.062222,2016.978320 3218.789442,2029.432361 3227.218364,2039.841416 3264.719557,1923.492158"/>
    <poly id="260269827" type="building" color="207,245,201" fill="1" layer="-2.00" shape="3221.758473,2068.664356 3212.795931,2087.993802 3202.100324,2072.724668 3177.522394,2036.421895 3171.928667,2024.691540 3166.372891,2012.184905 3162.863149,1998.591653 3160.160270,1981.538901 3161.350368,1965.019919 3162.863152,1952.628704 3167.120246,1937.111511 3175.585239,1916.593578 3181.081136,1907.715369 3203.681702,1860.967536 3221.435729,1881.859431 3199.630688,1922.012075 3190.709639,1941.396240 3184.021532,1965.441606 3182.511570,1981.068349 3184.092820,1995.480331 3188.602047,2012.935267 3195.313318,2027.062691 3207.045995,2046.004507 3217.831870,2060.585142 3221.758473,2068.664356"/>
    <poly id="260270756" type="building" color="184,184,179" fill="1" layer="-1.00" shape="3270.032260,1614.140651 3215.004488,1559.084370 3268.216960,1506.499246 3289.206425,1527.492735 3313.690851,1551.996306 3295.143099,1570.332151 3304.696936,1579.891562 3300.144989,1584.388240 3270.032260,1614.140651"/>
    <poly id="260271493" type="building" color="207,245,201" fill="1" layer="-2.00" shape="2952.598359,2357.131799 3059.183625,2461.759444 3058.999083,2472.078700 2955.269804,2474.510370 2952.598359,2357.131799"/>
    <poly id="260308075" type="building" color="207,245,201" fill="1" layer="-2.00" shape="1122.311348,2287.078080 1198.613379,2327.964080 1208.546652,2334.003190 1210.182069,2341.200578 1209.667128,2348.101518 1124.264483,2349.098501 1120.132881,2345.245010 1119.671555,2289.737357 1122.311348,2287.078080"/>
    <poly id="260308076" type="building" color="255,230,230" fill="1" layer="-1.00" shape="1094.044555,2309.535739 1057.815582,2310.075736 1058.331375,2344.528756 1094.560260,2343.988753 1094.044555,2309.535739"/>
    <poly id="260308078" type="building" color="237,199,199" fill="1" layer="-1.00" shape="1058.529928,2304.157648 1058.362830,2294.176539 1074.027027,2293.914307 1074.204279,2303.895245 1058.529928,2304.157648"/>
    <poly id="260308078#1" type="building" color="255,230,230" fill="1" layer="-1.00" shape="1058.529928,2304.157648 1058.362830,2294.176539 1074.027027,2293.914307 1074.204279,2303.895245 1058.529928,2304.157648"/>
    <poly id="260308079" type="building" color="184,184,179" fill="1" layer="-1.00" shape="1049.162878,2251.170387 1047.177525,2247.369628 1000.065387,2248.313582 1000.751897,2297.811644 1049.785233,2296.846591 1049.162878,2251.170387"/>
    <poly id="260308080" type="building" color="255,230,230" fill="1" layer="-1.00" shape="1058.936311,2278.022041 1064.304156,2277.976502 1064.280198,2275.938014 1074.409513,2276.067629 1074.431017,2270.670863 1069.002180,2270.717420 1068.941331,2263.438277 1072.225175,2263.416547 1072.107966,2249.733578 1076.255837,2249.697385 1076.161360,2239.194259 1062.394538,2231.324569 1058.569079,2233.006424 1058.936311,2278.022041"/>
    <poly id="260308082" type="building" color="255,230,230" fill="1" layer="-1.00" shape="1024.560384,2216.167678 1024.748395,2220.109338 1014.700392,2220.587843 1015.432264,2235.756449 1046.084118,2234.290289 1045.408333,2220.040462 1040.684014,2220.263608 1040.450305,2215.414079 1024.560384,2216.167678"/>
    <poly id="260308085" type="building" color="255,230,230" fill="1" layer="-1.00" shape="775.631849,2321.196428 775.920510,2349.337177 804.700406,2349.032104 804.401636,2320.891529 775.631849,2321.196428"/>
    <poly id="260308086" type="building" color="255,230,230" fill="1" layer="-1.00" shape="829.368327,2349.084100 829.233135,2340.409993 815.164491,2340.623598 814.902586,2323.175511 830.963578,2322.928521 830.819619,2313.124305 805.437165,2313.516432 805.978077,2349.431766 829.368327,2349.084100"/>
    <poly id="260308087" type="building" color="255,230,230" fill="1" layer="-1.00" shape="839.047119,2277.427716 839.629494,2307.934851 827.523399,2308.159878 827.152674,2288.464187 806.244250,2288.869982 806.032557,2278.058535 839.047119,2277.427716"/>
    <poly id="260409540" type="building" color="255,230,230" fill="1" layer="-1.00" shape="884.325186,2322.987371 884.598912,2344.180607 879.707284,2348.373588 830.079129,2349.027865 829.908115,2335.789012 871.292180,2335.250703 871.130158,2323.153039 884.325186,2322.987371"/>