<?xml version="1.0" encoding="UTF-8"?>
<!-- generated on 2019-08-29 14:55:51.329000 by $Id$ via randomTrips.py
  options: -n osm.net.xml <doubleminus>seed 413 <doubleminus>fringe-factor 60 -p 0.25 -r THosm.rou.xml -o THosm.trips.xml -e 2000 <doubleminus>vehicle-class passenger <doubleminus>vclass passenger <doubleminus>prefix veh <doubleminus>min-distance 300 <doubleminus>trip-attributes departLane="best" <doubleminus>validate
-->
<routes xmlns:xsi="http://www.w3.org/2001/XMLSchema-instance" xsi:noNamespaceSchemaLocation="http://sumo.dlr.de/xsd/routes_file.xsd">
    <vType id="veh_passenger" vClass="passenger">
    </vType>
    <trip id="veh0" depart="0.00" departLane="best" from="593222063#2" to="344930939" type="veh_passenger"/>
    <trip id="veh1" depart="0.25" departLane="best" from="212393898#0" to="-337516287#0" type="veh_passenger"/>
    <trip id="veh2" depart="0.50" departLane="best" from="550820624#0" to="-598350686" type="veh_passenger"/>
    <trip id="veh3" depart="0.75" departLane="best" from="398841566#4" to="-429355493" type="veh_passenger"/>
    <trip id="veh4" depart="1.00" departLane="best" from="592212373" to="-597943723#0" type="veh_passenger"/>
    <trip id="veh5" depart="1.25" departLane="best" from="278901112#5" to="-593217265#0" type="veh_passenger"/>
    <trip id="veh6" depart="1.50" departLane="best" from="592754350" to="321570655" type="veh_passenger"/>
    <trip id="veh7" depart="1.75" departLane="best" from="219481949#2" to="626200221" type="veh_passenger"/>
    <trip id="veh8" depart="2.00" departLane="best" from="-388242363" to="-597943723#0" type="veh_passenger"/>
    <trip id="veh9" depart="2.25" departLane="best" from="-591197050" to="-444782963#0" type="veh_passenger"/>
    <trip id="veh10" depart="2.50" departLane="best" from="-591694858#1" to="-598828217" type="veh_passenger"/>
    <trip id="veh11" depart="2.75" departLane="best" from="-272610167#1" to="-626315238#1" type="veh_passenger"/>
    <trip id="veh12" depart="3.00" departLane="best" from="-592945192" to="628598363" type="veh_passenger"/>
    <trip id="veh13" depart="3.25" departLane="best" from="598350897" to="-592963199#14" type="veh_passenger"/>
    <trip id="veh14" depart="3.50" departLane="best" from="591691513#0" to="24296704#3" type="veh_passenger"/>
    <trip id="veh15" depart="3.75" departLane="best" from="-244792258#2" to="575246411#4" type="veh_passenger"/>
    <trip id="veh16" depart="4.00" departLane="best" from="-592949983#0" to="626195041" type="veh_passenger"/>
    <trip id="veh17" depart="4.25" departLane="best" from="626641322#0" to="34264098#2" type="veh_passenger"/>
    <trip id="veh18" depart="4.50" departLane="best" from="229903944#1" to="592214841#0" type="veh_passenger"/>
    <trip id="veh19" depart="4.75" departLane="best" from="429356758" to="272605930#2" type="veh_passenger"/>
    <trip id="veh20" depart="5.00" departLane="best" from="-648358687#8" to="-361514592" type="veh_passenger"/>
    <trip id="veh21" depart="5.25" departLane="best" from="328091241#4" to="212405155#4" type="veh_passenger"/>
    <trip id="veh22" depart="5.50" departLane="best" from="598350897" to="-257118311#11" type="veh_passenger"/>
    <trip id="veh23" depart="5.75" departLane="best" from="-591197050" to="597660359" type="veh_passenger"/>
    <trip id="veh24" depart="6.00" departLane="best" from="429472040#0" to="244792258#2" type="veh_passenger"/>
    <trip id="veh25" depart="6.25" departLane="best" from="-592945192" to="-628596656" type="veh_passenger"/>
    <trip id="veh26" depart="6.50" departLane="best" from="575312674#2" to="591400418" type="veh_passenger"/>
    <trip id="veh27" depart="6.75" departLane="best" from="340121429" to="219484135#2" type="veh_passenger"/>
    <trip id="veh28" depart="7.00" departLane="best" from="-575241795#1" to="-627520938" type="veh_passenger"/>
    <trip id="veh29" depart="7.25" departLane="best" from="575041547#0" to="575247212#4" type="veh_passenger"/>
    <trip id="veh30" depart="7.50" departLane="best" from="590913897#2" to="-571841186#0" type="veh_passenger"/>
    <trip id="veh31" depart="7.75" departLane="best" from="-598561999" to="-628749371#0" type="veh_passenger"/>
    <trip id="veh32" depart="8.00" departLane="best" from="60025763#0" to="596877716#1" type="veh_passenger"/>
    <trip id="veh33" depart="8.25" departLane="best" from="690114397#4" to="429356754#0" type="veh_passenger"/>
    <trip id="veh34" depart="8.50" departLane="best" from="626315432#0" to="571843129#6" type="veh_passenger"/>
    <trip id="veh35" depart="8.75" departLane="best" from="-444818064#2" to="221491917#2" type="veh_passenger"/>
    <trip id="veh36" depart="9.00" departLane="best" from="575041547#0" to="592211144" type="veh_passenger"/>
    <trip id="veh37" depart="9.25" departLane="best" from="-544187241#1" to="429358059" type="veh_passenger"/>
    <trip id="veh38" depart="9.50" departLane="best" from="-244791276#6" to="-626203445" type="veh_passenger"/>
    <trip id="veh39" depart="9.75" departLane="best" from="-391878876" to="-331613663#0" type="veh_passenger"/>
    <trip id="veh40" depart="10.00" departLane="best" from="575312687#1" to="355383504" type="veh_passenger"/>
    <trip id="veh41" depart="10.25" departLane="best" from="628598362" to="359321450#1" type="veh_passenger"/>
    <trip id="veh42" depart="10.50" departLane="best" from="404845543#0" to="-626203445" type="veh_passenger"/>
    <trip id="veh43" depart="10.75" departLane="best" from="626327995#0" to="456617162#2" type="veh_passenger"/>
    <trip id="veh44" depart="11.00" departLane="best" from="482644005#0" to="598350598" type="veh_passenger"/>
    <trip id="veh45" depart="11.25" departLane="best" from="-341739963" to="597236966" type="veh_passenger"/>
    <trip id="veh46" depart="11.50" departLane="best" from="597271890" to="-362212173#3" type="veh_passenger"/>
    <trip id="veh47" depart="11.75" departLane="best" from="593222063#0" to="-60025763#0" type="veh_passenger"/>
    <trip id="veh48" depart="12.00" departLane="best" from="629676631" to="626668179#8" type="veh_passenger"/>
    <trip id="veh49" depart="12.25" departLane="best" from="372957036" to="-597980677" type="veh_passenger"/>
    <trip id="veh50" depart="12.50" departLane="best" from="-87657284#1" to="591400418" type="veh_passenger"/>
    <trip id="veh51" depart="12.75" departLane="best" from="628596656" to="244791276#6" type="veh_passenger"/>
    <trip id="veh52" depart="13.00" departLane="best" from="-626200221" to="339760465#2" type="veh_passenger"/>
    <trip id="veh53" depart="13.25" departLane="best" from="-372958576" to="-429351701" type="veh_passenger"/>
    <trip id="veh54" depart="13.50" departLane="best" from="628525139#0" to="303687828#2" type="veh_passenger"/>
    <trip id="veh55" depart="13.75" departLane="best" from="272607299" to="590400674#12" type="veh_passenger"/>
    <trip id="veh56" depart="14.00" departLane="best" from="626641322#0" to="625475666#4" type="veh_passenger"/>
    <trip id="veh57" depart="14.25" departLane="best" from="372955607" to="-105618141#1" type="veh_passenger"/>
    <trip id="veh58" depart="14.50" departLane="best" from="-593220021#1" to="-328091237#4" type="veh_passenger"/>
    <trip id="veh59" depart="14.75" departLane="best" from="-627522679#1" to="-593217265#0" type="veh_passenger"/>
    <trip id="veh60" depart="15.00" departLane="best" from="-598858092" to="372955609" type="veh_passenger"/>
    <trip id="veh61" depart="15.25" departLane="best" from="-591596526" to="-260270764#1" type="veh_passenger"/>
    <trip id="veh62" depart="15.50" departLane="best" from="-597660359" to="-593222063#0" type="veh_passenger"/>
    <trip id="veh63" depart="15.75" departLane="best" from="592211105#0" to="-260308083#0" type="veh_passenger"/>
    <trip id="veh64" depart="16.00" departLane="best" from="597974399" to="-648358687#4" type="veh_passenger"/>
    <trip id="veh65" depart="16.25" departLane="best" from="591691513#0" to="-575241795#2" type="veh_passenger"/>
    <trip id="veh66" depart="16.50" departLane="best" from="-244792258#2" to="60025756#2" type="veh_passenger"/>
    <trip id="veh67" depart="16.75" departLane="best" from="-591198542#1" to="-597943723#0" type="veh_passenger"/>
    <trip id="veh68" depart="17.00" departLane="best" from="-597233338" to="-105618140#4" type="veh_passenger"/>
    <trip id="veh69" depart="17.25" departLane="best" from="272610166" to="223059859#0" type="veh_passenger"/>
    <trip id="veh70" depart="17.50" departLane="best" from="592212373" to="359321450#1" type="veh_passenger"/>
    <trip id="veh71" depart="17.75" departLane="best" from="590312581#1" to="-355383499#0" type="veh_passenger"/>
    <trip id="veh72" depart="18.00" departLane="best" from="-444828793" to="597660359" type="veh_passenger"/>
    <trip id="veh73" depart="18.25" departLane="best" from="-328091237#10" to="221491917#2" type="veh_passenger"/>
    <trip id="veh74" depart="18.50" departLane="best" from="-444828793" to="444782962#1" type="veh_passenger"/>
    <trip id="veh75" depart="18.75" departLane="best" from="591693019#1" to="571843129#6" type="veh_passenger"/>
    <trip id="veh76" depart="19.00" departLane="best" from="597974399" to="575075329#1" type="veh_passenger"/>
    <trip id="veh77" depart="19.25" departLane="best" from="628598362" to="626203742" type="veh_passenger"/>
    <trip id="veh78" depart="19.50" departLane="best" from="575246411#0" to="215003675#0" type="veh_passenger"/>
    <trip id="veh79" depart="19.75" departLane="best" from="-325123419#0" to="-361514592" type="veh_passenger"/>
    <trip id="veh80" depart="20.00" departLane="best" from="-391878947" to="303687824#1" type="veh_passenger"/>
    <trip id="veh81" depart="20.25" departLane="best" from="-219414218#3" to="571843129#6" type="veh_passenger"/>
    <trip id="veh82" depart="20.50" departLane="best" from="-626200221" to="442504142#0" type="veh_passenger"/>
    <trip id="veh83" depart="20.75" departLane="best" from="598350897" to="592947810#1" type="veh_passenger"/>
    <trip id="veh84" depart="21.00" departLane="best" from="-626315432#1" to="-592211105#0" type="veh_passenger"/>
    <trip id="veh85" depart="21.25" departLane="best" from="-328091236#0" to="444828796" type="veh_passenger"/>
    <trip id="veh86" depart="21.50" departLane="best" from="590828696#1" to="-271452253#6" type="veh_passenger"/>
    <trip id="veh87" depart="21.75" departLane="best" from="-610897306#0" to="335529311#2" type="veh_passenger"/>
    <trip id="veh88" depart="22.00" departLane="best" from="500942595#1" to="292749304#4" type="veh_passenger"/>
    <trip id="veh89" depart="22.25" departLane="best" from="575041547#0" to="-591356461#7" type="veh_passenger"/>
    <trip id="veh90" depart="22.50" departLane="best" from="591198539#2" to="-350390031#0" type="veh_passenger"/>
    <trip id="veh91" depart="22.75" departLane="best" from="372958574" to="-30881842#10" type="veh_passenger"/>
    <trip id="veh92" depart="23.00" departLane="best" from="372957030#0" to="391878876" type="veh_passenger"/>
    <trip id="veh93" depart="23.25" departLane="best" from="-372955611#1" to="-626315432#0" type="veh_passenger"/>
    <trip id="veh94" depart="23.50" departLane="best" from="-344930941" to="-597974399" type="veh_passenger"/>
    <trip id="veh95" depart="23.75" departLane="best" from="-626197399" to="-626931224#2" type="veh_passenger"/>
    <trip id="veh96" depart="24.00" departLane="best" from="598436977" to="610894795#0" type="veh_passenger"/>
    <trip id="veh97" depart="24.25" departLane="best" from="-272605930#2" to="444828797" type="veh_passenger"/>
    <trip id="veh98" depart="24.50" departLane="best" from="628596095#5" to="-331613663#0" type="veh_passenger"/>
    <trip id="veh99" depart="24.75" departLane="best" from="-597233338" to="597660359" type="veh_passenger"/>
    <trip id="veh100" depart="25.00" departLane="best" from="610897313" to="-361514592" type="veh_passenger"/>
    <trip id="veh101" depart="25.25" departLane="best" from="398841566#8" to="-592945001#0" type="veh_passenger"/>
    <trip id="veh102" depart="25.50" departLane="best" from="105618141#9" to="-597256792" type="veh_passenger"/>
    <trip id="veh103" depart="25.75" departLane="best" from="598350686" to="340040478" type="veh_passenger"/>
    <trip id="veh104" depart="26.00" departLane="best" from="-626197399" to="-429351701" type="veh_passenger"/>
    <trip id="veh105" depart="26.25" departLane="best" from="-575247212#0" to="-597943723#0" type="veh_passenger"/>
    <trip id="veh106" depart="26.50" departLane="best" from="575312693#1" to="313786403#0" type="veh_passenger"/>
    <trip id="veh107" depart="26.75" departLane="best" from="-470226895" to="-592211105#0" type="veh_passenger"/>
    <trip id="veh108" depart="27.00" departLane="best" from="598350730" to="-372955607" type="veh_passenger"/>
    <trip id="veh109" depart="27.25" departLane="best" from="-325123419#0" to="372955609" type="veh_passenger"/>
    <trip id="veh110" depart="27.50" departLane="best" from="219414236#6" to="590624716" type="veh_passenger"/>
    <trip id="veh111" depart="27.75" departLane="best" from="-628598363" to="398841566#8" type="veh_passenger"/>
    <trip id="veh112" depart="28.00" departLane="best" from="-590400674#9" to="626931224#2" type="veh_passenger"/>
    <trip id="veh113" depart="28.25" departLane="best" from="219177558#3" to="590400674#12" type="veh_passenger"/>
    <trip id="veh114" depart="28.50" departLane="best" from="575041547#0" to="313786195#6" type="veh_passenger"/>
    <trip id="veh115" depart="28.75" departLane="best" from="-372957029#1" to="598010155" type="veh_passenger"/>
    <trip id="veh116" depart="29.00" departLane="best" from="404845543#0" to="-598350897" type="veh_passenger"/>
    <trip id="veh117" depart="29.25" departLane="best" from="404845543#0" to="144691376#1" type="veh_passenger"/>
    <trip id="veh118" depart="29.50" departLane="best" from="598436977" to="-628596657" type="veh_passenger"/>
    <trip id="veh119" depart="29.75" departLane="best" from="-597660359" to="221491917#2" type="veh_passenger"/>
    <trip id="veh120" depart="30.00" departLane="best" from="598437305" to="610893062#2" type="veh_passenger"/>
    <trip id="veh121" depart="30.25" departLane="best" from="593222063#0" to="592945192" type="veh_passenger"/>
    <trip id="veh122" depart="30.50" departLane="best" from="248415638#1" to="-239545319" type="veh_passenger"/>
    <trip id="veh123" depart="30.75" departLane="best" from="-341739963" to="591197050" type="veh_passenger"/>
    <trip id="veh124" depart="31.00" departLane="best" from="-593234886" to="303687828#2" type="veh_passenger"/>
    <trip id="veh125" depart="31.25" departLane="best" from="592754350" to="-327914325#1" type="veh_passenger"/>
    <trip id="veh126" depart="31.50" departLane="best" from="597943723#0" to="598350598" type="veh_passenger"/>
    <trip id="veh127" depart="31.75" departLane="best" from="591573488#1" to="-626192229" type="veh_passenger"/>
    <trip id="veh128" depart="32.00" departLane="best" from="372957030#0" to="628596095#3" type="veh_passenger"/>
    <trip id="veh129" depart="32.25" departLane="best" from="239548924#1" to="593217265#1" type="veh_passenger"/>
    <trip id="veh130" depart="32.50" departLane="best" from="-341739963" to="328091237#13" type="veh_passenger"/>
    <trip id="veh131" depart="32.75" departLane="best" from="219414219#2" to="-598350686" type="veh_passenger"/>
    <trip id="veh132" depart="33.00" departLane="best" from="-575043251#1" to="372958576" type="veh_passenger"/>
    <trip id="veh133" depart="33.25" departLane="best" from="-244801278" to="219481948#1" type="veh_passenger"/>
    <trip id="veh134" depart="33.50" departLane="best" from="-470226895" to="-592963199#7" type="veh_passenger"/>
    <trip id="veh135" depart="33.75" departLane="best" from="-120262761#0" to="444828077#1" type="veh_passenger"/>
    <trip id="veh136" depart="34.00" departLane="best" from="340121431#0" to="626327995#0" type="veh_passenger"/>
    <trip id="veh137" depart="34.25" departLane="best" from="626315432#0" to="303687824#1" type="veh_passenger"/>
    <trip id="veh138" depart="34.50" departLane="best" from="388905992#2" to="593217265#1" type="veh_passenger"/>
    <trip id="veh139" depart="34.75" departLane="best" from="223059860#0" to="626931224#3" type="veh_passenger"/>
    <trip id="veh140" depart="35.00" departLane="best" from="-592945192" to="591197050" type="veh_passenger"/>
    <trip id="veh141" depart="35.25" departLane="best" from="-239433866" to="391878947" type="veh_passenger"/>
    <trip id="veh142" depart="35.50" departLane="best" from="515478916" to="308047940#2" type="veh_passenger"/>
    <trip id="veh143" depart="35.75" departLane="best" from="-444828793" to="-626202780#1" type="veh_passenger"/>
    <trip id="veh144" depart="36.00" departLane="best" from="626641323" to="355232302" type="veh_passenger"/>
    <trip id="veh145" depart="36.25" departLane="best" from="303687828#1" to="-219414229#1" type="veh_passenger"/>
    <trip id="veh146" depart="36.50" departLane="best" from="-596877716#1" to="677977534#0" type="veh_passenger"/>
    <trip id="veh147" depart="36.75" departLane="best" from="241890929#1" to="340040478" type="veh_passenger"/>
    <trip id="veh148" depart="37.00" departLane="best" from="628749371#0" to="109998110#1" type="veh_passenger"/>
    <trip id="veh149" depart="37.25" departLane="best" from="442504142#0" to="626200224#5" type="veh_passenger"/>
    <trip id="veh150" depart="37.50" departLane="best" from="-330354488" to="626203742" type="veh_passenger"/>
    <trip id="veh151" depart="37.75" departLane="best" from="-596877716#1" to="-60025763#0" type="veh_passenger"/>
    <trip id="veh152" depart="38.00" departLane="best" from="56026999" to="-597943548" type="veh_passenger"/>
    <trip id="veh153" depart="38.25" departLane="best" from="-544187241#1" to="-361514592" type="veh_passenger"/>
    <trip id="veh154" depart="38.50" departLane="best" from="-444818064#2" to="335529311#14" type="veh_passenger"/>
    <trip id="veh155" depart="38.75" departLane="best" from="-575297077#17" to="-591401793" type="veh_passenger"/>
    <trip id="veh156" depart="39.00" departLane="best" from="-627520939" to="598858092" type="veh_passenger"/>
    <trip id="veh157" depart="39.25" departLane="best" from="373784546" to="-598436977" type="veh_passenger"/>
    <trip id="veh158" depart="39.50" departLane="best" from="-391878947" to="355232302" type="veh_passenger"/>
    <trip id="veh159" depart="39.75" departLane="best" from="-598458203#1" to="303687824#1" type="veh_passenger"/>
    <trip id="veh160" depart="40.00" departLane="best" from="648358687#13" to="591693019#4" type="veh_passenger"/>
    <trip id="veh161" depart="40.25" departLane="best" from="239433850#3" to="339760469#4" type="veh_passenger"/>
    <trip id="veh162" depart="40.50" departLane="best" from="-596877716#1" to="590402783#4" type="veh_passenger"/>
    <trip id="veh163" depart="40.75" departLane="best" from="-372957029#1" to="372958576" type="veh_passenger"/>
    <trip id="veh164" depart="41.00" departLane="best" from="-626315432#1" to="-598828217" type="veh_passenger"/>
    <trip id="veh165" depart="41.25" departLane="best" from="105618140#2" to="391878876" type="veh_passenger"/>
    <trip id="veh166" depart="41.50" departLane="best" from="518493225" to="626931224#3" type="veh_passenger"/>
    <trip id="veh167" depart="41.75" departLane="best" from="598822149#5" to="597937502#0" type="veh_passenger"/>
    <trip id="veh168" depart="42.00" departLane="best" from="-590624715" to="336854539#1" type="veh_passenger"/>
    <trip id="veh169" depart="42.25" departLane="best" from="690114397#1" to="-28757014#2" type="veh_passenger"/>
    <trip id="veh170" depart="42.50" departLane="best" from="-598350598" to="626200221" type="veh_passenger"/>
    <trip id="veh171" depart="42.75" departLane="best" from="-610893064#1" to="313786195#6" type="veh_passenger"/>
    <trip id="veh172" depart="43.00" departLane="best" from="626663342" to="306342713#2" type="veh_passenger"/>
    <trip id="veh173" depart="43.25" departLane="best" from="-391878876" to="-372957036" type="veh_passenger"/>
    <trip id="veh174" depart="43.50" departLane="best" from="340121426" to="-593217265#0" type="veh_passenger"/>
    <trip id="veh175" depart="43.75" departLane="best" from="-598822149#3" to="626200222#7" type="veh_passenger"/>
    <trip id="veh176" depart="44.00" departLane="best" from="-592945192" to="442504142#1" type="veh_passenger"/>
    <trip id="veh177" depart="44.25" departLane="best" from="-331613663#2" to="253914396#1" type="veh_passenger"/>
    <trip id="veh178" depart="44.50" departLane="best" from="597974399" to="-592955209#2" type="veh_passenger"/>
    <trip id="veh179" depart="44.75" departLane="best" from="626640191" to="-28757014#2" type="veh_passenger"/>
    <trip id="veh180" depart="45.00" departLane="best" from="597974399" to="-591405194#0" type="veh_passenger"/>
    <trip id="veh181" depart="45.25" departLane="best" from="-260270763#2" to="444828793" type="veh_passenger"/>
    <trip id="veh182" depart="45.50" departLane="best" from="677977533#3" to="596877716#1" type="veh_passenger"/>
    <trip id="veh183" depart="45.75" departLane="best" from="103643440#3" to="444818064#2" type="veh_passenger"/>
    <trip id="veh184" depart="46.00" departLane="best" from="626203445" to="272605930#2" type="veh_passenger"/>
    <trip id="veh185" depart="46.25" departLane="best" from="-303687830#1" to="597236966" type="veh_passenger"/>
    <trip id="veh186" depart="46.50" departLane="best" from="-229905008#3" to="-597943548" type="veh_passenger"/>
    <trip id="veh187" depart="46.75" departLane="best" from="597974684" to="-598440183" type="veh_passenger"/>
    <trip id="veh188" depart="47.00" departLane="best" from="575041547#0" to="-628749691" type="veh_passenger"/>
    <trip id="veh189" depart="47.25" departLane="best" from="-544187241#1" to="-626641323" type="veh_passenger"/>
    <trip id="veh190" depart="47.50" departLane="best" from="-626203742" to="-465634684" type="veh_passenger"/>
    <trip id="veh191" depart="47.75" departLane="best" from="-610893064#2" to="593235424#1" type="veh_passenger"/>
    <trip id="veh192" depart="48.00" departLane="best" from="626668179#12" to="470226895" type="veh_passenger"/>
    <trip id="veh193" depart="48.25" departLane="best" from="-341739965#0" to="592963199#11" type="veh_passenger"/>
    <trip id="veh194" depart="48.50" departLane="best" from="629676631" to="444828796" type="veh_passenger"/>
    <trip id="veh195" depart="48.75" departLane="best" from="-591198539#0" to="33302581#3" type="veh_passenger"/>
    <trip id="veh196" depart="49.00" departLane="best" from="-592945192" to="241890856#0" type="veh_passenger"/>
    <trip id="veh197" depart="49.25" departLane="best" from="339759632#0" to="-591697192#7" type="veh_passenger"/>
    <trip id="veh198" depart="49.50" departLane="best" from="591691513#0" to="690114397#4" type="veh_passenger"/>
    <trip id="veh199" depart="49.75" departLane="best" from="219414219#2" to="335529311#14" type="veh_passenger"/>
    <trip id="veh200" depart="50.00" departLane="best" from="591401761" to="592211144" type="veh_passenger"/>
    <trip id="veh201" depart="50.25" departLane="best" from="-341739963" to="271452257#2" type="veh_passenger"/>
    <trip id="veh202" depart="50.50" departLane="best" from="-244791276#6" to="391878876" type="veh_passenger"/>
    <trip id="veh203" depart="50.75" departLane="best" from="-444828796" to="-593217265#0" type="veh_passenger"/>
    <trip id="veh204" depart="51.00" departLane="best" from="-592210732#1" to="575041547#1" type="veh_passenger"/>
    <trip id="veh205" depart="51.25" departLane="best" from="587779765#6" to="372957029#1" type="veh_passenger"/>
    <trip id="veh206" depart="51.50" departLane="best" from="-626200221" to="-591697192#8" type="veh_passenger"/>
    <trip id="veh207" depart="51.75" departLane="best" from="207706965" to="372955611#1" type="veh_passenger"/>
    <trip id="veh208" depart="52.00" departLane="best" from="271452253#3" to="244801278" type="veh_passenger"/>
    <trip id="veh209" depart="52.25" departLane="best" from="-272605930#2" to="-626641323" type="veh_passenger"/>
    <trip id="veh210" depart="52.50" departLane="best" from="-355383507" to="-361514592" type="veh_passenger"/>
    <trip id="veh211" depart="52.75" departLane="best" from="628596656" to="-591401761" type="veh_passenger"/>
    <trip id="veh212" depart="53.00" departLane="best" from="591405194#0" to="590402783#4" type="veh_passenger"/>
    <trip id="veh213" depart="53.25" departLane="best" from="592754350" to="626931224#3" type="veh_passenger"/>
    <trip id="veh214" depart="53.50" departLane="best" from="597271890" to="239433866" type="veh_passenger"/>
    <trip id="veh215" depart="53.75" departLane="best" from="592945001#0" to="-591691513#0" type="veh_passenger"/>
    <trip id="veh216" depart="54.00" departLane="best" from="272609505#1" to="-354073849#1" type="veh_passenger"/>
    <trip id="veh217" depart="54.25" departLane="best" from="598436977" to="-628596657" type="veh_passenger"/>
    <trip id="veh218" depart="54.50" departLane="best" from="-571843129#6" to="648360855" type="veh_passenger"/>
    <trip id="veh219" depart="54.75" departLane="best" from="597974684" to="442504142#1" type="veh_passenger"/>
    <trip id="veh220" depart="55.00" departLane="best" from="-591354446#1" to="597660359" type="veh_passenger"/>
    <trip id="veh221" depart="55.25" departLane="best" from="-388949446#3" to="444818064#2" type="veh_passenger"/>
    <trip id="veh222" depart="55.50" departLane="best" from="597974399" to="-331613663#0" type="veh_passenger"/>
    <trip id="veh223" depart="55.75" departLane="best" from="354073845#2" to="-597256792" type="veh_passenger"/>
    <trip id="veh224" depart="56.00" departLane="best" from="690114397#1" to="-597271890" type="veh_passenger"/>
    <trip id="veh225" depart="56.25" departLane="best" from="57935063#4" to="-598350686" type="veh_passenger"/>
    <trip id="veh226" depart="56.50" departLane="best" from="-592211144" to="-591401793" type="veh_passenger"/>
    <trip id="veh227" depart="56.75" departLane="best" from="-591400418" to="244801278" type="veh_passenger"/>
    <trip id="veh228" depart="57.00" departLane="best" from="-372957029#1" to="429358059" type="veh_passenger"/>
    <trip id="veh229" depart="57.25" departLane="best" from="571716818#1" to="240137739#12" type="veh_passenger"/>
    <trip id="veh230" depart="57.50" departLane="best" from="575316225#2" to="627521059" type="veh_passenger"/>
    <trip id="veh231" depart="57.75" departLane="best" from="626327994#2" to="355232301#1" type="veh_passenger"/>
    <trip id="veh232" depart="58.00" departLane="best" from="372955607" to="626204667#1" type="veh_passenger"/>
    <trip id="veh233" depart="58.25" departLane="best" from="-339760465#2" to="444829610" type="veh_passenger"/>
    <trip id="veh234" depart="58.50" departLane="best" from="202795297#6" to="-648358687#15" type="veh_passenger"/>
    <trip id="veh235" depart="58.75" departLane="best" from="-598350598" to="-598822149#6" type="veh_passenger"/>
    <trip id="veh236" depart="59.00" departLane="best" from="-372955609" to="339760466#5" type="veh_passenger"/>
    <trip id="veh237" depart="59.25" departLane="best" from="361514592" to="321570655" type="veh_passenger"/>
    <trip id="veh238" depart="59.50" departLane="best" from="-444828796" to="-626315432#0" type="veh_passenger"/>
    <trip id="veh239" depart="59.75" departLane="best" from="-592945192" to="-271452253#2" type="veh_passenger"/>
    <trip id="veh240" depart="60.00" departLane="best" from="627510069#7" to="303687828#2" type="veh_passenger"/>
    <trip id="veh241" depart="60.25" departLane="best" from="628749371#0" to="-627520938" type="veh_passenger"/>
    <trip id="veh242" depart="60.50" departLane="best" from="336854542#9" to="-626668179#17" type="veh_passenger"/>
    <trip id="veh243" depart="60.75" departLane="best" from="592945001#0" to="239433866" type="veh_passenger"/>
    <trip id="veh244" depart="61.00" departLane="best" from="28757014#2" to="60025756#0" type="veh_passenger"/>
    <trip id="veh245" depart="61.25" departLane="best" from="591405194#0" to="-591198543#3" type="veh_passenger"/>
    <trip id="veh246" depart="61.50" departLane="best" from="-341739963" to="626315432#1" type="veh_passenger"/>
    <trip id="veh247" depart="61.75" departLane="best" from="229904765#2" to="444828793" type="veh_passenger"/>
    <trip id="veh248" depart="62.00" departLane="best" from="-626203742" to="597660359" type="veh_passenger"/>
    <trip id="veh249" depart="62.25" departLane="best" from="-593217265#1" to="-628598362" type="veh_passenger"/>
    <trip id="veh250" depart="62.50" departLane="best" from="-303687824#1" to="-105618141#1" type="veh_passenger"/>
    <trip id="veh251" depart="62.75" departLane="best" from="212393898#0" to="-597943723#0" type="veh_passenger"/>
    <trip id="veh252" depart="63.00" departLane="best" from="626663342" to="207706969#1" type="veh_passenger"/>
    <trip id="veh253" depart="63.25" departLane="best" from="575163105#3" to="597660248#2" type="veh_passenger"/>
    <trip id="veh254" depart="63.50" departLane="best" from="372957036" to="-575276709#2" type="veh_passenger"/>
    <trip id="veh255" depart="63.75" departLane="best" from="-598858092" to="-591691513#0" type="veh_passenger"/>
    <trip id="veh256" depart="64.00" departLane="best" from="629676631" to="-221491920#0" type="veh_passenger"/>
    <trip id="veh257" depart="64.25" departLane="best" from="590625952#1" to="372957029#1" type="veh_passenger"/>
    <trip id="veh258" depart="64.50" departLane="best" from="223053397#0" to="244791276#6" type="veh_passenger"/>
    <trip id="veh259" depart="64.75" departLane="best" from="592214782" to="296382591#7" type="veh_passenger"/>